*SPEF "ieee 1481-1999"
*DESIGN "project1"
*DATE "12:25:32 Saturday April 26, 2025"
*VENDOR "The OpenROAD Project"
*PROGRAM "OpenROAD"
*VERSION "b16bda7e82721d10566ff7e2b68f1ff0be9f9e38"
*DESIGN_FLOW "NAME_SCOPE LOCAL" "PIN_CAP NONE"
*DIVIDER /
*DELIMITER :
*BUS_DELIMITER []
*T_UNIT 1 NS
*C_UNIT 1 PF
*R_UNIT 1 OHM
*L_UNIT 1 HENRY

*NAME_MAP
*3 in1[0]
*4 in1[1]
*5 in1[2]
*6 in1[3]
*7 in1[4]
*8 in1[5]
*9 in1[6]
*10 in1[7]
*11 out1[0]
*12 out1[1]
*13 out1[2]
*14 out1[3]
*15 out1[4]
*16 out1[5]
*17 out1[6]
*18 out1[7]
*19 _00_
*20 _01_
*21 _02_
*22 _03_
*23 _04_
*24 _05_
*25 _06_
*26 _07_
*27 _08_
*28 _09_
*29 net1
*30 net10
*31 net11
*32 net12
*33 net13
*34 net14
*35 net15
*36 net16
*37 net2
*38 net3
*39 net4
*40 net5
*41 net6
*42 net7
*43 net8
*44 net9
*45 FILLER_0_0_21
*46 FILLER_0_0_27
*47 FILLER_0_0_29
*48 FILLER_0_0_37
*49 FILLER_0_0_9
*50 FILLER_0_10_14
*51 FILLER_0_10_24
*52 FILLER_0_10_29
*53 FILLER_0_10_33
*54 FILLER_0_10_6
*55 FILLER_0_11_15
*56 FILLER_0_11_27
*57 FILLER_0_11_3
*58 FILLER_0_11_31
*59 FILLER_0_11_37
*60 FILLER_0_11_45
*61 FILLER_0_12_21
*62 FILLER_0_12_27
*63 FILLER_0_12_29
*64 FILLER_0_12_37
*65 FILLER_0_12_9
*66 FILLER_0_1_15
*67 FILLER_0_1_3
*68 FILLER_0_1_30
*69 FILLER_0_1_42
*70 FILLER_0_2_18
*71 FILLER_0_2_26
*72 FILLER_0_2_29
*73 FILLER_0_2_3
*74 FILLER_0_2_42
*75 FILLER_0_3_18
*76 FILLER_0_3_30
*77 FILLER_0_3_42
*78 FILLER_0_3_6
*79 FILLER_0_4_15
*80 FILLER_0_4_24
*81 FILLER_0_4_3
*82 FILLER_0_4_34
*83 FILLER_0_4_46
*84 FILLER_0_5_12
*85 FILLER_0_5_22
*86 FILLER_0_5_28
*87 FILLER_0_5_35
*88 FILLER_0_5_43
*89 FILLER_0_5_6
*90 FILLER_0_6_15
*91 FILLER_0_6_27
*92 FILLER_0_6_29
*93 FILLER_0_6_3
*94 FILLER_0_6_35
*95 FILLER_0_6_39
*96 FILLER_0_6_47
*97 FILLER_0_7_15
*98 FILLER_0_7_27
*99 FILLER_0_7_3
*100 FILLER_0_7_33
*101 FILLER_0_7_37
*102 FILLER_0_7_45
*103 FILLER_0_8_18
*104 FILLER_0_8_26
*105 FILLER_0_8_29
*106 FILLER_0_8_37
*107 FILLER_0_8_42
*108 FILLER_0_8_6
*109 FILLER_0_9_15
*110 FILLER_0_9_19
*111 FILLER_0_9_3
*112 FILLER_0_9_30
*113 FILLER_0_9_42
*114 PHY_EDGE_ROW_0_Left_13
*115 PHY_EDGE_ROW_0_Right_0
*116 PHY_EDGE_ROW_10_Left_23
*117 PHY_EDGE_ROW_10_Right_10
*118 PHY_EDGE_ROW_11_Left_24
*119 PHY_EDGE_ROW_11_Right_11
*120 PHY_EDGE_ROW_12_Left_25
*121 PHY_EDGE_ROW_12_Right_12
*122 PHY_EDGE_ROW_1_Left_14
*123 PHY_EDGE_ROW_1_Right_1
*124 PHY_EDGE_ROW_2_Left_15
*125 PHY_EDGE_ROW_2_Right_2
*126 PHY_EDGE_ROW_3_Left_16
*127 PHY_EDGE_ROW_3_Right_3
*128 PHY_EDGE_ROW_4_Left_17
*129 PHY_EDGE_ROW_4_Right_4
*130 PHY_EDGE_ROW_5_Left_18
*131 PHY_EDGE_ROW_5_Right_5
*132 PHY_EDGE_ROW_6_Left_19
*133 PHY_EDGE_ROW_6_Right_6
*134 PHY_EDGE_ROW_7_Left_20
*135 PHY_EDGE_ROW_7_Right_7
*136 PHY_EDGE_ROW_8_Left_21
*137 PHY_EDGE_ROW_8_Right_8
*138 PHY_EDGE_ROW_9_Left_22
*139 PHY_EDGE_ROW_9_Right_9
*140 TAP_TAPCELL_ROW_0_26
*141 TAP_TAPCELL_ROW_10_31
*142 TAP_TAPCELL_ROW_12_32
*143 TAP_TAPCELL_ROW_2_27
*144 TAP_TAPCELL_ROW_4_28
*145 TAP_TAPCELL_ROW_6_29
*146 TAP_TAPCELL_ROW_8_30
*147 _10_
*148 _11_
*149 _12_
*150 _13_
*151 _14_
*152 _15_
*153 _16_
*154 _17_
*155 _18_
*156 _19_
*157 _20_
*158 _21_
*159 _22_
*160 _23_
*161 _24_
*162 _25_
*163 _26_
*164 _27_
*165 input1
*166 input2
*167 input3
*168 input4
*169 input5
*170 input6
*171 input7
*172 input8
*173 output10
*174 output11
*175 output12
*176 output13
*177 output14
*178 output15
*179 output16
*180 output9

*PORTS
in1[0] I
in1[1] I
in1[2] I
in1[3] I
in1[4] I
in1[5] I
in1[6] I
in1[7] I
out1[0] O
out1[1] O
out1[2] O
out1[3] O
out1[4] O
out1[5] O
out1[6] O
out1[7] O

*D_NET *3 0.00108348
*CONN
*P in1[0] I
*I *165:A I *D sky130_fd_sc_hd__buf_1
*CAP
1 in1[0] 0.000541738
2 *165:A 0.000541738
3 *165:A *166:A 0
*RES
1 in1[0] *165:A 24.4979 
*END

*D_NET *4 0.00082408
*CONN
*P in1[1] I
*I *166:A I *D sky130_fd_sc_hd__buf_1
*CAP
1 in1[1] 0.000383467
2 *166:A 0.000383467
3 *166:A *167:A 0
4 *166:A *29:10 5.71472e-05
5 *165:A *166:A 0
*RES
1 in1[1] *166:A 22.141 
*END

*D_NET *5 0.000572832
*CONN
*P in1[2] I
*I *167:A I *D sky130_fd_sc_hd__buf_1
*CAP
1 in1[2] 0.000286416
2 *167:A 0.000286416
3 *167:A *168:A 0
4 *166:A *167:A 0
*RES
1 in1[2] *167:A 20.4803 
*END

*D_NET *6 0.000694675
*CONN
*P in1[3] I
*I *168:A I *D sky130_fd_sc_hd__clkbuf_1
*CAP
1 in1[3] 0.000347337
2 *168:A 0.000347337
3 *168:A *150:D 0
4 *168:A *169:A 0
5 *167:A *168:A 0
*RES
1 in1[3] *168:A 21.6946 
*END

*D_NET *7 0.000605554
*CONN
*P in1[4] I
*I *169:A I *D sky130_fd_sc_hd__buf_1
*CAP
1 in1[4] 0.000302777
2 *169:A 0.000302777
3 *169:A *150:D 0
4 *169:A *170:A 0
5 *168:A *169:A 0
*RES
1 in1[4] *169:A 20.7838 
*END

*D_NET *8 0.000715317
*CONN
*P in1[5] I
*I *170:A I *D sky130_fd_sc_hd__buf_1
*CAP
1 in1[5] 0.000357659
2 *170:A 0.000357659
3 *170:A *150:D 0
4 *170:A *171:A 0
5 *169:A *170:A 0
*RES
1 in1[5] *170:A 21.9981 
*END

*D_NET *9 0.000563768
*CONN
*P in1[6] I
*I *171:A I *D sky130_fd_sc_hd__clkbuf_1
*CAP
1 in1[6] 0.000281884
2 *171:A 0.000281884
3 *171:A *172:A 0
4 *170:A *171:A 0
*RES
1 in1[6] *171:A 20.4803 
*END

*D_NET *10 0.00123174
*CONN
*P in1[7] I
*I *172:A I *D sky130_fd_sc_hd__buf_1
*CAP
1 in1[7] 0.000615872
2 *172:A 0.000615872
3 *171:A *172:A 0
*RES
1 in1[7] *172:A 25.0176 
*END

*D_NET *11 0.00116601
*CONN
*P out1[0] O
*I *180:X O *D sky130_fd_sc_hd__buf_2
*CAP
1 out1[0] 0.000583005
2 *180:X 0.000583005
3 out1[0] out1[1] 0
*RES
1 *180:X out1[0] 23.8754 
*END

*D_NET *12 0.000438356
*CONN
*P out1[1] O
*I *173:X O *D sky130_fd_sc_hd__buf_2
*CAP
1 out1[1] 0.000219178
2 *173:X 0.000219178
3 out1[1] out1[2] 0
4 out1[0] out1[1] 0
*RES
1 *173:X out1[1] 18.1229 
*END

*D_NET *13 0.000437128
*CONN
*P out1[2] O
*I *174:X O *D sky130_fd_sc_hd__buf_2
*CAP
1 out1[2] 0.000218564
2 *174:X 0.000218564
3 out1[2] out1[3] 0
4 out1[2] *30:14 0
5 out1[1] out1[2] 0
*RES
1 *174:X out1[2] 18.1229 
*END

*D_NET *14 0.000601462
*CONN
*P out1[3] O
*I *175:X O *D sky130_fd_sc_hd__buf_2
*CAP
1 out1[3] 0.000270516
2 *175:X 0.000270516
3 out1[3] out1[4] 0
4 out1[3] *176:A 6.043e-05
5 out1[2] out1[3] 0
*RES
1 *175:X out1[3] 19.3371 
*END

*D_NET *15 0.000437128
*CONN
*P out1[4] O
*I *176:X O *D sky130_fd_sc_hd__buf_2
*CAP
1 out1[4] 0.000218564
2 *176:X 0.000218564
3 out1[4] out1[5] 0
4 out1[4] *30:14 0
5 out1[3] out1[4] 0
*RES
1 *176:X out1[4] 18.1229 
*END

*D_NET *16 0.000588096
*CONN
*P out1[5] O
*I *177:X O *D sky130_fd_sc_hd__buf_2
*CAP
1 out1[5] 0.000294048
2 *177:X 0.000294048
3 out1[5] out1[6] 0
4 out1[5] *163:B 0
5 out1[5] *30:14 0
6 out1[4] out1[5] 0
*RES
1 *177:X out1[5] 19.3371 
*END

*D_NET *17 0.000773025
*CONN
*P out1[6] O
*I *178:X O *D sky130_fd_sc_hd__buf_2
*CAP
1 out1[6] 0.000372477
2 *178:X 0.000372477
3 out1[6] out1[7] 0
4 out1[6] *179:A 2.80699e-05
5 out1[5] out1[6] 0
*RES
1 *178:X out1[6] 18.5553 
*END

*D_NET *18 0.00103775
*CONN
*P out1[7] O
*I *179:X O *D sky130_fd_sc_hd__clkbuf_4
*CAP
1 out1[7] 0.000518877
2 *179:X 0.000518877
3 out1[6] out1[7] 0
*RES
1 *179:X out1[7] 24.4258 
*END

*D_NET *19 0.00215093
*CONN
*I *163:A I *D sky130_fd_sc_hd__nor2_1
*I *148:B I *D sky130_fd_sc_hd__xnor2_1
*I *147:Y O *D sky130_fd_sc_hd__nor2_1
*CAP
1 *163:A 0.000133075
2 *148:B 0
3 *147:Y 0.000394492
4 *19:12 0.000527567
5 *163:A *148:A 0
6 *163:A *174:A 5.52302e-05
7 *19:12 *153:A 0
8 *19:12 *156:A 0.000170532
9 *19:12 *160:A 0.000320031
10 *19:12 *23:10 0.000313323
11 *19:12 *41:10 0.000107503
12 *19:12 *41:25 0.000129175
*RES
1 *147:Y *19:12 30.1929 
2 *19:12 *148:B 9.3 
3 *19:12 *163:A 11.4964 
*END

*D_NET *20 0.00174782
*CONN
*I *151:A_N I *D sky130_fd_sc_hd__and2b_1
*I *149:X O *D sky130_fd_sc_hd__o31a_1
*CAP
1 *151:A_N 0.000562489
2 *149:X 0.000562489
3 *151:A_N *149:B1 9.77294e-05
4 *151:A_N *163:B 3.1367e-05
5 *151:A_N *38:12 0.000438792
6 *151:A_N *40:8 5.49544e-05
7 *151:A_N *43:12 0
*RES
1 *149:X *151:A_N 40.1357 
*END

*D_NET *21 0.00618986
*CONN
*I *154:B I *D sky130_fd_sc_hd__and2_1
*I *158:A3 I *D sky130_fd_sc_hd__o31ai_1
*I *151:B I *D sky130_fd_sc_hd__and2b_1
*I *157:D I *D sky130_fd_sc_hd__or4_1
*I *153:B I *D sky130_fd_sc_hd__nor2_1
*I *150:X O *D sky130_fd_sc_hd__or4_2
*CAP
1 *154:B 0.000653692
2 *158:A3 0
3 *151:B 0
4 *157:D 0
5 *153:B 0.000379592
6 *150:X 0.000128053
7 *21:51 0.000924476
8 *21:40 0.000419042
9 *21:27 0.00037975
10 *21:8 0.000739138
11 *153:B *153:A 5.52238e-05
12 *153:B *23:10 5.52302e-05
13 *153:B *42:10 0.000223599
14 *154:B *152:A 0
15 *154:B *153:A 6.8646e-06
16 *154:B *154:A 0.00109081
17 *154:B *156:A 1.91414e-05
18 *154:B *180:A 0
19 *154:B *41:25 5.80706e-06
20 *21:8 *148:A 9.93955e-05
21 *21:27 *158:B1 3.915e-05
22 *21:27 *42:10 0.000270243
23 *21:40 *157:A 6.2379e-05
24 *21:40 *158:B1 1.69252e-05
25 *21:40 *163:B 9.66977e-05
26 *21:51 *153:A 1.65558e-05
27 *21:51 *163:B 0.000479645
28 *21:51 *41:25 2.84494e-05
*RES
1 *150:X *21:8 15.5679 
2 *21:8 *153:B 20.9071 
3 *21:8 *21:27 5.14286 
4 *21:27 *157:D 13.8 
5 *21:27 *21:40 7.69643 
6 *21:40 *151:B 9.3 
7 *21:40 *21:51 9.875 
8 *21:51 *158:A3 13.8 
9 *21:51 *154:B 29.8536 
*END

*D_NET *22 0.00171054
*CONN
*I *152:A I *D sky130_fd_sc_hd__clkbuf_1
*I *151:X O *D sky130_fd_sc_hd__and2b_1
*CAP
1 *152:A 0.00068726
2 *151:X 0.00068726
3 *152:A *161:B 0
4 *152:A *179:A 6.57026e-05
5 *152:A *40:27 0.00027032
6 *152:A *43:12 0
7 *154:B *152:A 0
*RES
1 *151:X *152:A 39.4214 
*END

*D_NET *23 0.00447101
*CONN
*I *156:B I *D sky130_fd_sc_hd__xnor2_1
*I *155:A I *D sky130_fd_sc_hd__nor2_1
*I *153:Y O *D sky130_fd_sc_hd__nor2_1
*CAP
1 *156:B 0.000188005
2 *155:A 6.71205e-05
3 *153:Y 0.000721384
4 *23:10 0.000976509
5 *156:B *147:B 0.000208851
6 *156:B *155:B 0
7 *156:B *174:A 0.000191097
8 *156:B *29:49 2.61337e-05
9 *23:10 *147:B 0.000179656
10 *23:10 *153:A 0
11 *23:10 *156:A 0
12 *23:10 *160:A 0.000320031
13 *23:10 *174:A 0.000238497
14 *23:10 *178:A 0.000850719
15 *23:10 *179:A 0.000134458
16 *153:B *23:10 5.52302e-05
17 *19:12 *23:10 0.000313323
*RES
1 *153:Y *23:10 33.8357 
2 *23:10 *155:A 14.7464 
3 *23:10 *156:B 19.0857 
*END

*D_NET *24 0.00168018
*CONN
*I *155:B I *D sky130_fd_sc_hd__nor2_1
*I *154:X O *D sky130_fd_sc_hd__and2_1
*CAP
1 *155:B 0.000334974
2 *154:X 0.000334974
3 *155:B *154:A 0
4 *155:B *174:A 1.17968e-05
5 *155:B *177:A 0.000343346
6 *155:B *180:A 0.000101545
7 *155:B *30:14 0.000553544
8 *156:B *155:B 0
*RES
1 *154:X *155:B 36.8857 
*END

*D_NET *25 0.00228069
*CONN
*I *161:B I *D sky130_fd_sc_hd__xor2_1
*I *159:A I *D sky130_fd_sc_hd__and2_1
*I *157:X O *D sky130_fd_sc_hd__or4_1
*CAP
1 *161:B 0.000441019
2 *159:A 0.000137219
3 *157:X 0
4 *25:4 0.000578238
5 *159:A *157:B 0.000210539
6 *161:B *153:A 0
7 *161:B *179:A 2.28904e-05
8 *161:B *43:12 0.000890782
9 *152:A *161:B 0
*RES
1 *157:X *25:4 9.3 
2 *25:4 *159:A 12.6214 
3 *25:4 *161:B 29.6571 
*END

*D_NET *26 0.000354677
*CONN
*I *159:B I *D sky130_fd_sc_hd__and2_1
*I *158:Y O *D sky130_fd_sc_hd__o31ai_1
*CAP
1 *159:B 8.05479e-05
2 *158:Y 8.05479e-05
3 *159:B *153:A 8.06427e-05
4 *159:B *157:B 5.71472e-05
5 *159:B *41:25 5.57914e-05
*RES
1 *158:Y *159:B 30.0821 
*END

*D_NET *27 0.00106754
*CONN
*I *160:A I *D sky130_fd_sc_hd__clkbuf_1
*I *159:X O *D sky130_fd_sc_hd__and2_1
*CAP
1 *160:A 0.000212484
2 *159:X 0.000212484
3 *160:A *157:B 2.51343e-06
4 *19:12 *160:A 0.000320031
5 *23:10 *160:A 0.000320031
*RES
1 *159:X *160:A 33.0286 
*END

*D_NET *28 0.00380245
*CONN
*I *163:B I *D sky130_fd_sc_hd__nor2_1
*I *162:X O *D sky130_fd_sc_hd__and2_1
*CAP
1 *163:B 0.000725575
2 *162:X 0.000725575
3 *163:B *158:A1 2.764e-05
4 *163:B *158:A2 3.33174e-05
5 *163:B *158:B1 0.000353079
6 *163:B *174:A 8.98994e-05
7 *163:B *177:A 0.000370533
8 *163:B *178:A 1.59689e-05
9 *163:B *179:A 0.00013235
10 *163:B *30:14 0.000512615
11 *163:B *40:8 0.000119548
12 *163:B *40:27 1.98839e-05
13 *163:B *40:42 6.87574e-05
14 out1[5] *163:B 0
15 *151:A_N *163:B 3.1367e-05
16 *21:40 *163:B 9.66977e-05
17 *21:51 *163:B 0.000479645
*RES
1 *162:X *163:B 47.4571 
*END

*D_NET *29 0.00922616
*CONN
*I *164:A I *D sky130_fd_sc_hd__clkbuf_1
*I *147:B I *D sky130_fd_sc_hd__nor2_1
*I *149:A2 I *D sky130_fd_sc_hd__o31a_1
*I *162:B I *D sky130_fd_sc_hd__and2_1
*I *150:B I *D sky130_fd_sc_hd__or4_2
*I *165:X O *D sky130_fd_sc_hd__buf_1
*CAP
1 *164:A 0.000201942
2 *147:B 0.000216105
3 *149:A2 0
4 *162:B 6.45841e-05
5 *150:B 0.000286547
6 *165:X 0.00023911
7 *29:49 0.000791157
8 *29:38 0.000469591
9 *29:12 0.000591553
10 *29:10 0.000576015
11 *147:B *156:A 0.000249384
12 *150:B *150:A 0.000588355
13 *150:B *150:D 0.000582747
14 *150:B *37:12 4.66511e-05
15 *162:B *162:A 5.33005e-05
16 *162:B *40:8 4.82947e-05
17 *164:A *156:A 5.52302e-05
18 *164:A *174:A 0.000180777
19 *164:A *180:A 1.92789e-05
20 *29:10 *37:8 0.000318309
21 *29:12 *149:B1 0.000295844
22 *29:12 *150:D 0.000603648
23 *29:12 *37:8 2.31791e-05
24 *29:12 *37:10 0.000555582
25 *29:12 *37:12 0.000371526
26 *29:38 *149:A1 0.00048718
27 *29:38 *149:A3 0.00030398
28 *29:38 *149:B1 4.40504e-05
29 *29:38 *38:6 0.000267731
30 *29:49 *149:A3 5.71472e-05
31 *29:49 *149:B1 4.88637e-05
32 *29:49 *154:A 7.79781e-06
33 *29:49 *156:A 0.000108917
34 *156:B *147:B 0.000208851
35 *156:B *29:49 2.61337e-05
36 *166:A *29:10 5.71472e-05
37 *23:10 *147:B 0.000179656
*RES
1 *165:X *29:10 18.8179 
2 *29:10 *29:12 11.9643 
3 *29:12 *150:B 22.675 
4 *29:12 *162:B 15.175 
5 *29:10 *29:38 9.96429 
6 *29:38 *149:A2 9.3 
7 *29:38 *29:49 11.5179 
8 *29:49 *147:B 21.2643 
9 *29:49 *164:A 17.7643 
*END

*D_NET *30 0.00379132
*CONN
*I *173:A I *D sky130_fd_sc_hd__buf_2
*I *163:Y O *D sky130_fd_sc_hd__nor2_1
*CAP
1 *173:A 0
2 *163:Y 0.000911099
3 *30:14 0.000911099
4 *30:14 *175:A 7.62495e-05
5 *30:14 *176:A 0.000280079
6 *30:14 *177:A 0.000308871
7 *30:14 *179:A 0.000118315
8 *30:14 *180:A 0.00011945
9 out1[2] *30:14 0
10 out1[4] *30:14 0
11 out1[5] *30:14 0
12 *155:B *30:14 0.000553544
13 *163:B *30:14 0.000512615
*RES
1 *163:Y *30:14 43.2821 
2 *30:14 *173:A 9.3 
*END

*D_NET *31 0.00412309
*CONN
*I *174:A I *D sky130_fd_sc_hd__buf_2
*I *148:Y O *D sky130_fd_sc_hd__xnor2_1
*CAP
1 *174:A 0.000583369
2 *148:Y 0.000583369
3 *174:A *177:A 0.0012851
4 *174:A *178:A 0.000683743
5 *174:A *179:A 0.000220211
6 *155:B *174:A 1.17968e-05
7 *156:B *174:A 0.000191097
8 *163:A *174:A 5.52302e-05
9 *163:B *174:A 8.98994e-05
10 *164:A *174:A 0.000180777
11 *23:10 *174:A 0.000238497
*RES
1 *148:Y *174:A 49.3857 
*END

*D_NET *32 0.00147138
*CONN
*I *175:A I *D sky130_fd_sc_hd__buf_2
*I *152:X O *D sky130_fd_sc_hd__clkbuf_1
*CAP
1 *175:A 0.000697563
2 *152:X 0.000697563
3 *30:14 *175:A 7.62495e-05
*RES
1 *152:X *175:A 35.8321 
*END

*D_NET *33 0.00125756
*CONN
*I *176:A I *D sky130_fd_sc_hd__buf_2
*I *155:Y O *D sky130_fd_sc_hd__nor2_1
*CAP
1 *176:A 0.000407533
2 *155:Y 0.000407533
3 *176:A *179:A 0.000101989
4 out1[3] *176:A 6.043e-05
5 *30:14 *176:A 0.000280079
*RES
1 *155:Y *176:A 35.8679 
*END

*D_NET *34 0.00322005
*CONN
*I *177:A I *D sky130_fd_sc_hd__buf_2
*I *156:Y O *D sky130_fd_sc_hd__xnor2_1
*CAP
1 *177:A 0.000456098
2 *156:Y 0.000456098
3 *155:B *177:A 0.000343346
4 *163:B *177:A 0.000370533
5 *174:A *177:A 0.0012851
6 *30:14 *177:A 0.000308871
*RES
1 *156:Y *177:A 45.5821 
*END

*D_NET *35 0.00251937
*CONN
*I *178:A I *D sky130_fd_sc_hd__buf_2
*I *160:X O *D sky130_fd_sc_hd__clkbuf_1
*CAP
1 *178:A 0.000430529
2 *160:X 0.000430529
3 *178:A *179:A 0.000107879
4 *163:B *178:A 1.59689e-05
5 *174:A *178:A 0.000683743
6 *23:10 *178:A 0.000850719
*RES
1 *160:X *178:A 41.6893 
*END

*D_NET *36 0.00474881
*CONN
*I *179:A I *D sky130_fd_sc_hd__clkbuf_4
*I *161:X O *D sky130_fd_sc_hd__xor2_1
*CAP
1 *179:A 0.00190847
2 *161:X 0.00190847
3 out1[6] *179:A 2.80699e-05
4 *152:A *179:A 6.57026e-05
5 *161:B *179:A 2.28904e-05
6 *163:B *179:A 0.00013235
7 *174:A *179:A 0.000220211
8 *176:A *179:A 0.000101989
9 *178:A *179:A 0.000107879
10 *23:10 *179:A 0.000134458
11 *30:14 *179:A 0.000118315
*RES
1 *161:X *179:A 47.586 
*END

*D_NET *37 0.00692873
*CONN
*I *149:A1 I *D sky130_fd_sc_hd__o31a_1
*I *147:A I *D sky130_fd_sc_hd__nor2_1
*I *162:A I *D sky130_fd_sc_hd__and2_1
*I *150:A I *D sky130_fd_sc_hd__or4_2
*I *166:X O *D sky130_fd_sc_hd__buf_1
*CAP
1 *149:A1 7.45693e-05
2 *147:A 0.000732692
3 *162:A 3.04135e-05
4 *150:A 0.000390355
5 *166:X 0.000179684
6 *37:12 0.000628534
7 *37:10 0.00120948
8 *37:8 0.00052328
9 *149:A1 *149:B1 0.00048718
10 *150:A *148:A 5.68722e-05
11 *150:A *150:D 0.000171581
12 *150:B *150:A 0.000588355
13 *150:B *37:12 4.66511e-05
14 *162:B *162:A 5.33005e-05
15 *29:10 *37:8 0.000318309
16 *29:12 *37:8 2.31791e-05
17 *29:12 *37:10 0.000555582
18 *29:12 *37:12 0.000371526
19 *29:38 *149:A1 0.00048718
*RES
1 *166:X *37:8 18.175 
2 *37:8 *37:10 7.10714 
3 *37:10 *37:12 5.28571 
4 *37:12 *150:A 24.05 
5 *37:12 *162:A 14.3357 
6 *37:10 *147:A 24.6036 
7 *37:8 *149:A1 18.4429 
*END

*D_NET *38 0.00505204
*CONN
*I *149:A3 I *D sky130_fd_sc_hd__o31a_1
*I *148:A I *D sky130_fd_sc_hd__xnor2_1
*I *150:C I *D sky130_fd_sc_hd__or4_2
*I *167:X O *D sky130_fd_sc_hd__buf_1
*CAP
1 *149:A3 0.000156548
2 *148:A 0.000531933
3 *150:C 0
4 *167:X 0.000189913
5 *38:12 0.00156154
6 *38:6 0.00137606
7 *38:6 *149:B1 1.21258e-05
8 *150:A *148:A 5.68722e-05
9 *151:A_N *38:12 0.000438792
10 *163:A *148:A 0
11 *21:8 *148:A 9.93955e-05
12 *29:38 *149:A3 0.00030398
13 *29:38 *38:6 0.000267731
14 *29:49 *149:A3 5.71472e-05
*RES
1 *167:X *38:6 12.7107 
2 *38:6 *38:12 28.8571 
3 *38:12 *150:C 9.3 
4 *38:12 *148:A 18.4786 
5 *38:6 *149:A3 12.7107 
*END

*D_NET *39 0.00477573
*CONN
*I *149:B1 I *D sky130_fd_sc_hd__o31a_1
*I *150:D I *D sky130_fd_sc_hd__or4_2
*I *168:X O *D sky130_fd_sc_hd__clkbuf_1
*CAP
1 *149:B1 0.000490858
2 *150:D 0.000674525
3 *168:X 5.05962e-05
4 *39:8 0.00121598
5 *149:A1 *149:B1 0.00048718
6 *150:A *150:D 0.000171581
7 *150:B *150:D 0.000582747
8 *151:A_N *149:B1 9.77294e-05
9 *168:A *150:D 0
10 *169:A *150:D 0
11 *170:A *150:D 0
12 *29:12 *149:B1 0.000295844
13 *29:12 *150:D 0.000603648
14 *29:38 *149:B1 4.40504e-05
15 *29:49 *149:B1 4.88637e-05
16 *38:6 *149:B1 1.21258e-05
*RES
1 *168:X *39:8 14.3357 
2 *39:8 *150:D 31.5857 
3 *39:8 *149:B1 24.6929 
*END

*D_NET *40 0.00725067
*CONN
*I *158:A1 I *D sky130_fd_sc_hd__o31ai_1
*I *154:A I *D sky130_fd_sc_hd__and2_1
*I *153:A I *D sky130_fd_sc_hd__nor2_1
*I *157:A I *D sky130_fd_sc_hd__or4_1
*I *169:X O *D sky130_fd_sc_hd__buf_1
*CAP
1 *158:A1 6.94111e-05
2 *154:A 0.000332585
3 *153:A 0.000603067
4 *157:A 0.000150981
5 *169:X 0.000534958
6 *40:42 0.000495084
7 *40:27 0.000790828
8 *40:8 0.000780613
9 *153:A *41:10 0
10 *153:A *41:25 0
11 *153:A *43:12 0
12 *154:A *156:A 0.000898928
13 *154:A *180:A 0
14 *157:A *157:B 5.57916e-05
15 *157:A *157:C 3.57544e-05
16 *157:A *158:B1 0.000174805
17 *157:A *43:12 1.17968e-05
18 *158:A1 *158:A2 3.33174e-05
19 *40:27 *158:B1 0.000310286
20 *40:42 *158:B1 4.27935e-05
21 *151:A_N *40:8 5.49544e-05
22 *152:A *40:27 0.00027032
23 *153:B *153:A 5.52238e-05
24 *154:B *153:A 6.8646e-06
25 *154:B *154:A 0.00109081
26 *155:B *154:A 0
27 *159:B *153:A 8.06427e-05
28 *161:B *153:A 0
29 *162:B *40:8 4.82947e-05
30 *163:B *158:A1 2.764e-05
31 *163:B *40:8 0.000119548
32 *163:B *40:27 1.98839e-05
33 *163:B *40:42 6.87574e-05
34 *19:12 *153:A 0
35 *21:40 *157:A 6.2379e-05
36 *21:51 *153:A 1.65558e-05
37 *23:10 *153:A 0
38 *29:49 *154:A 7.79781e-06
*RES
1 *169:X *40:8 16.0143 
2 *40:8 *157:A 22.2464 
3 *40:8 *40:27 3.41071 
4 *40:27 *153:A 28.9786 
5 *40:27 *40:42 1.76786 
6 *40:42 *154:A 32.5143 
7 *40:42 *158:A1 10.675 
*END

*D_NET *41 0.00578504
*CONN
*I *156:A I *D sky130_fd_sc_hd__xnor2_1
*I *158:A2 I *D sky130_fd_sc_hd__o31ai_1
*I *157:B I *D sky130_fd_sc_hd__or4_1
*I *170:X O *D sky130_fd_sc_hd__buf_1
*CAP
1 *156:A 0.000367407
2 *158:A2 9.21094e-06
3 *157:B 0.000349026
4 *170:X 0.000944062
5 *41:25 0.000480485
6 *41:10 0.00139696
7 *157:B *157:C 1.64083e-05
8 *147:B *156:A 0.000249384
9 *153:A *41:10 0
10 *153:A *41:25 0
11 *154:A *156:A 0.000898928
12 *154:B *156:A 1.91414e-05
13 *154:B *41:25 5.80706e-06
14 *157:A *157:B 5.57916e-05
15 *158:A1 *158:A2 3.33174e-05
16 *159:A *157:B 0.000210539
17 *159:B *157:B 5.71472e-05
18 *159:B *41:25 5.57914e-05
19 *160:A *157:B 2.51343e-06
20 *163:B *158:A2 3.33174e-05
21 *164:A *156:A 5.52302e-05
22 *19:12 *156:A 0.000170532
23 *19:12 *41:10 0.000107503
24 *19:12 *41:25 0.000129175
25 *21:51 *41:25 2.84494e-05
26 *23:10 *156:A 0
27 *29:49 *156:A 0.000108917
*RES
1 *170:X *41:10 27.9786 
2 *41:10 *157:B 20.3179 
3 *41:10 *41:25 3.16071 
4 *41:25 *158:A2 14.1304 
5 *41:25 *156:A 27.1214 
*END

*D_NET *42 0.00457411
*CONN
*I *158:B1 I *D sky130_fd_sc_hd__o31ai_1
*I *157:C I *D sky130_fd_sc_hd__or4_1
*I *171:X O *D sky130_fd_sc_hd__clkbuf_1
*CAP
1 *158:B1 0.000194744
2 *157:C 7.48282e-05
3 *171:X 0.00052782
4 *42:10 0.000797392
5 *158:B1 *43:12 0.000265385
6 *42:10 *43:12 0.00123089
7 *153:B *42:10 0.000223599
8 *157:A *157:C 3.57544e-05
9 *157:A *158:B1 0.000174805
10 *157:B *157:C 1.64083e-05
11 *163:B *158:B1 0.000353079
12 *21:27 *158:B1 3.915e-05
13 *21:27 *42:10 0.000270243
14 *21:40 *158:B1 1.69252e-05
15 *40:27 *158:B1 0.000310286
16 *40:42 *158:B1 4.27935e-05
*RES
1 *171:X *42:10 29.1214 
2 *42:10 *157:C 15.1929 
3 *42:10 *158:B1 20.675 
*END

*D_NET *43 0.00491139
*CONN
*I *161:A I *D sky130_fd_sc_hd__xor2_1
*I *172:X O *D sky130_fd_sc_hd__buf_1
*CAP
1 *161:A 0
2 *172:X 0.00125626
3 *43:12 0.00125626
4 *151:A_N *43:12 0
5 *152:A *43:12 0
6 *153:A *43:12 0
7 *157:A *43:12 1.17968e-05
8 *158:B1 *43:12 0.000265385
9 *161:B *43:12 0.000890782
10 *42:10 *43:12 0.00123089
*RES
1 *172:X *43:12 45.55 
2 *43:12 *161:A 9.3 
*END

*D_NET *44 0.000660054
*CONN
*I *180:A I *D sky130_fd_sc_hd__buf_2
*I *164:X O *D sky130_fd_sc_hd__clkbuf_1
*CAP
1 *180:A 0.00020989
2 *164:X 0.00020989
3 *154:A *180:A 0
4 *154:B *180:A 0
5 *155:B *180:A 0.000101545
6 *164:A *180:A 1.92789e-05
7 *30:14 *180:A 0.00011945
*RES
1 *164:X *180:A 32.2071 
*END
