* NGSPICE file created from aludesign.ext - technology: sky130A

* Black-box entry subcircuit for sky130_fd_sc_hd__decap_8 abstract view
.subckt sky130_fd_sc_hd__decap_8 VGND VNB VPB VPWR
.ends

* Black-box entry subcircuit for sky130_ef_sc_hd__decap_12 abstract view
.subckt sky130_ef_sc_hd__decap_12 VPWR VGND VPB VNB
.ends

* Black-box entry subcircuit for sky130_fd_sc_hd__tapvpwrvgnd_1 abstract view
.subckt sky130_fd_sc_hd__tapvpwrvgnd_1 VGND VPWR
.ends

* Black-box entry subcircuit for sky130_fd_sc_hd__xor2_2 abstract view
.subckt sky130_fd_sc_hd__xor2_2 A B VGND VNB VPB VPWR X
.ends

* Black-box entry subcircuit for sky130_fd_sc_hd__nand3_4 abstract view
.subckt sky130_fd_sc_hd__nand3_4 A B C VGND VNB VPB VPWR Y
.ends

* Black-box entry subcircuit for sky130_fd_sc_hd__nand2_1 abstract view
.subckt sky130_fd_sc_hd__nand2_1 A B VGND VNB VPB VPWR Y
.ends

* Black-box entry subcircuit for sky130_fd_sc_hd__buf_2 abstract view
.subckt sky130_fd_sc_hd__buf_2 A VGND VNB VPB VPWR X
.ends

* Black-box entry subcircuit for sky130_fd_sc_hd__and2_1 abstract view
.subckt sky130_fd_sc_hd__and2_1 A B VGND VNB VPB VPWR X
.ends

* Black-box entry subcircuit for sky130_fd_sc_hd__fill_1 abstract view
.subckt sky130_fd_sc_hd__fill_1 VGND VNB VPB VPWR
.ends

* Black-box entry subcircuit for sky130_fd_sc_hd__and2_2 abstract view
.subckt sky130_fd_sc_hd__and2_2 A B VGND VNB VPB VPWR X
.ends

* Black-box entry subcircuit for sky130_fd_sc_hd__nor2_4 abstract view
.subckt sky130_fd_sc_hd__nor2_4 A B VGND VNB VPB VPWR Y
.ends

* Black-box entry subcircuit for sky130_fd_sc_hd__and3_4 abstract view
.subckt sky130_fd_sc_hd__and3_4 A B C VGND VNB VPB VPWR X
.ends

* Black-box entry subcircuit for sky130_fd_sc_hd__fill_2 abstract view
.subckt sky130_fd_sc_hd__fill_2 VGND VNB VPB VPWR
.ends

* Black-box entry subcircuit for sky130_fd_sc_hd__decap_4 abstract view
.subckt sky130_fd_sc_hd__decap_4 VGND VNB VPB VPWR
.ends

* Black-box entry subcircuit for sky130_fd_sc_hd__and3_1 abstract view
.subckt sky130_fd_sc_hd__and3_1 A B C VGND VNB VPB VPWR X
.ends

* Black-box entry subcircuit for sky130_fd_sc_hd__decap_6 abstract view
.subckt sky130_fd_sc_hd__decap_6 VGND VNB VPB VPWR
.ends

* Black-box entry subcircuit for sky130_fd_sc_hd__diode_2 abstract view
.subckt sky130_fd_sc_hd__diode_2 DIODE VGND VNB VPB VPWR
.ends

* Black-box entry subcircuit for sky130_fd_sc_hd__clkbuf_1 abstract view
.subckt sky130_fd_sc_hd__clkbuf_1 A VGND VNB VPB VPWR X
.ends

* Black-box entry subcircuit for sky130_fd_sc_hd__dlygate4sd1_1 abstract view
.subckt sky130_fd_sc_hd__dlygate4sd1_1 A VGND VNB VPB VPWR X
.ends

* Black-box entry subcircuit for sky130_fd_sc_hd__xnor2_2 abstract view
.subckt sky130_fd_sc_hd__xnor2_2 A B VGND VNB VPB VPWR Y
.ends

* Black-box entry subcircuit for sky130_fd_sc_hd__a21bo_1 abstract view
.subckt sky130_fd_sc_hd__a21bo_1 A1 A2 B1_N VGND VNB VPB VPWR X
.ends

* Black-box entry subcircuit for sky130_fd_sc_hd__o221a_1 abstract view
.subckt sky130_fd_sc_hd__o221a_1 A1 A2 B1 B2 C1 VGND VNB VPB VPWR X
.ends

* Black-box entry subcircuit for sky130_fd_sc_hd__inv_2 abstract view
.subckt sky130_fd_sc_hd__inv_2 A VGND VNB VPB VPWR Y
.ends

* Black-box entry subcircuit for sky130_fd_sc_hd__a21oi_2 abstract view
.subckt sky130_fd_sc_hd__a21oi_2 A1 A2 B1 VGND VNB VPB VPWR Y
.ends

* Black-box entry subcircuit for sky130_fd_sc_hd__decap_3 abstract view
.subckt sky130_fd_sc_hd__decap_3 VGND VNB VPB VPWR
.ends

* Black-box entry subcircuit for sky130_fd_sc_hd__a31o_1 abstract view
.subckt sky130_fd_sc_hd__a31o_1 A1 A2 A3 B1 VGND VNB VPB VPWR X
.ends

* Black-box entry subcircuit for sky130_fd_sc_hd__dlymetal6s2s_1 abstract view
.subckt sky130_fd_sc_hd__dlymetal6s2s_1 A VGND VNB VPB VPWR X
.ends

* Black-box entry subcircuit for sky130_fd_sc_hd__clkbuf_2 abstract view
.subckt sky130_fd_sc_hd__clkbuf_2 A VGND VNB VPB VPWR X
.ends

* Black-box entry subcircuit for sky130_fd_sc_hd__a22o_1 abstract view
.subckt sky130_fd_sc_hd__a22o_1 A1 A2 B1 B2 VGND VNB VPB VPWR X
.ends

* Black-box entry subcircuit for sky130_fd_sc_hd__o31a_2 abstract view
.subckt sky130_fd_sc_hd__o31a_2 A1 A2 A3 B1 VGND VNB VPB VPWR X
.ends

* Black-box entry subcircuit for sky130_fd_sc_hd__nand3b_4 abstract view
.subckt sky130_fd_sc_hd__nand3b_4 A_N B C VGND VNB VPB VPWR Y
.ends

* Black-box entry subcircuit for sky130_fd_sc_hd__and4_1 abstract view
.subckt sky130_fd_sc_hd__and4_1 A B C D VGND VNB VPB VPWR X
.ends

* Black-box entry subcircuit for sky130_fd_sc_hd__and3_2 abstract view
.subckt sky130_fd_sc_hd__and3_2 A B C VGND VNB VPB VPWR X
.ends

* Black-box entry subcircuit for sky130_fd_sc_hd__a21o_1 abstract view
.subckt sky130_fd_sc_hd__a21o_1 A1 A2 B1 VGND VNB VPB VPWR X
.ends

* Black-box entry subcircuit for sky130_fd_sc_hd__or2b_1 abstract view
.subckt sky130_fd_sc_hd__or2b_1 A B_N VGND VNB VPB VPWR X
.ends

* Black-box entry subcircuit for sky130_fd_sc_hd__nand3_1 abstract view
.subckt sky130_fd_sc_hd__nand3_1 A B C VGND VNB VPB VPWR Y
.ends

* Black-box entry subcircuit for sky130_fd_sc_hd__o21ai_1 abstract view
.subckt sky130_fd_sc_hd__o21ai_1 A1 A2 B1 VGND VNB VPB VPWR Y
.ends

* Black-box entry subcircuit for sky130_fd_sc_hd__o2bb2a_1 abstract view
.subckt sky130_fd_sc_hd__o2bb2a_1 A1_N A2_N B1 B2 VGND VNB VPB VPWR X
.ends

* Black-box entry subcircuit for sky130_fd_sc_hd__nand2_2 abstract view
.subckt sky130_fd_sc_hd__nand2_2 A B VGND VNB VPB VPWR Y
.ends

* Black-box entry subcircuit for sky130_fd_sc_hd__buf_12 abstract view
.subckt sky130_fd_sc_hd__buf_12 A VGND VNB VPB VPWR X
.ends

* Black-box entry subcircuit for sky130_fd_sc_hd__nand3_2 abstract view
.subckt sky130_fd_sc_hd__nand3_2 A B C VGND VNB VPB VPWR Y
.ends

* Black-box entry subcircuit for sky130_fd_sc_hd__or3_4 abstract view
.subckt sky130_fd_sc_hd__or3_4 A B C VGND VNB VPB VPWR X
.ends

* Black-box entry subcircuit for sky130_fd_sc_hd__a211o_1 abstract view
.subckt sky130_fd_sc_hd__a211o_1 A1 A2 B1 C1 VGND VNB VPB VPWR X
.ends

* Black-box entry subcircuit for sky130_fd_sc_hd__o22a_1 abstract view
.subckt sky130_fd_sc_hd__o22a_1 A1 A2 B1 B2 VGND VNB VPB VPWR X
.ends

* Black-box entry subcircuit for sky130_fd_sc_hd__a21oi_1 abstract view
.subckt sky130_fd_sc_hd__a21oi_1 A1 A2 B1 VGND VNB VPB VPWR Y
.ends

* Black-box entry subcircuit for sky130_fd_sc_hd__a22oi_4 abstract view
.subckt sky130_fd_sc_hd__a22oi_4 A1 A2 B1 B2 VGND VNB VPB VPWR Y
.ends

* Black-box entry subcircuit for sky130_fd_sc_hd__buf_8 abstract view
.subckt sky130_fd_sc_hd__buf_8 A VGND VNB VPB VPWR X
.ends

* Black-box entry subcircuit for sky130_fd_sc_hd__and4_2 abstract view
.subckt sky130_fd_sc_hd__and4_2 A B C D VGND VNB VPB VPWR X
.ends

* Black-box entry subcircuit for sky130_fd_sc_hd__buf_6 abstract view
.subckt sky130_fd_sc_hd__buf_6 A VGND VNB VPB VPWR X
.ends

* Black-box entry subcircuit for sky130_fd_sc_hd__or2_1 abstract view
.subckt sky130_fd_sc_hd__or2_1 A B VGND VNB VPB VPWR X
.ends

* Black-box entry subcircuit for sky130_fd_sc_hd__and2b_1 abstract view
.subckt sky130_fd_sc_hd__and2b_1 A_N B VGND VNB VPB VPWR X
.ends

* Black-box entry subcircuit for sky130_fd_sc_hd__nand4_4 abstract view
.subckt sky130_fd_sc_hd__nand4_4 A B C D VGND VNB VPB VPWR Y
.ends

* Black-box entry subcircuit for sky130_fd_sc_hd__buf_4 abstract view
.subckt sky130_fd_sc_hd__buf_4 A VGND VNB VPB VPWR X
.ends

* Black-box entry subcircuit for sky130_fd_sc_hd__nand2_4 abstract view
.subckt sky130_fd_sc_hd__nand2_4 A B VGND VNB VPB VPWR Y
.ends

* Black-box entry subcircuit for sky130_fd_sc_hd__a21o_4 abstract view
.subckt sky130_fd_sc_hd__a21o_4 A1 A2 B1 VGND VNB VPB VPWR X
.ends

* Black-box entry subcircuit for sky130_fd_sc_hd__a22o_4 abstract view
.subckt sky130_fd_sc_hd__a22o_4 A1 A2 B1 B2 VGND VNB VPB VPWR X
.ends

* Black-box entry subcircuit for sky130_fd_sc_hd__and3b_1 abstract view
.subckt sky130_fd_sc_hd__and3b_1 A_N B C VGND VNB VPB VPWR X
.ends

* Black-box entry subcircuit for sky130_fd_sc_hd__o21a_1 abstract view
.subckt sky130_fd_sc_hd__o21a_1 A1 A2 B1 VGND VNB VPB VPWR X
.ends

* Black-box entry subcircuit for sky130_fd_sc_hd__a211o_4 abstract view
.subckt sky130_fd_sc_hd__a211o_4 A1 A2 B1 C1 VGND VNB VPB VPWR X
.ends

* Black-box entry subcircuit for sky130_fd_sc_hd__or2_2 abstract view
.subckt sky130_fd_sc_hd__or2_2 A B VGND VNB VPB VPWR X
.ends

* Black-box entry subcircuit for sky130_fd_sc_hd__nor2_1 abstract view
.subckt sky130_fd_sc_hd__nor2_1 A B VGND VNB VPB VPWR Y
.ends

* Black-box entry subcircuit for sky130_fd_sc_hd__o311a_1 abstract view
.subckt sky130_fd_sc_hd__o311a_1 A1 A2 A3 B1 C1 VGND VNB VPB VPWR X
.ends

* Black-box entry subcircuit for sky130_fd_sc_hd__xnor2_4 abstract view
.subckt sky130_fd_sc_hd__xnor2_4 A B VGND VNB VPB VPWR Y
.ends

* Black-box entry subcircuit for sky130_fd_sc_hd__xor2_4 abstract view
.subckt sky130_fd_sc_hd__xor2_4 A B VGND VNB VPB VPWR X
.ends

* Black-box entry subcircuit for sky130_fd_sc_hd__and2b_2 abstract view
.subckt sky130_fd_sc_hd__and2b_2 A_N B VGND VNB VPB VPWR X
.ends

* Black-box entry subcircuit for sky130_fd_sc_hd__clkbuf_4 abstract view
.subckt sky130_fd_sc_hd__clkbuf_4 A VGND VNB VPB VPWR X
.ends

* Black-box entry subcircuit for sky130_fd_sc_hd__a21bo_2 abstract view
.subckt sky130_fd_sc_hd__a21bo_2 A1 A2 B1_N VGND VNB VPB VPWR X
.ends

* Black-box entry subcircuit for sky130_fd_sc_hd__or2_4 abstract view
.subckt sky130_fd_sc_hd__or2_4 A B VGND VNB VPB VPWR X
.ends

* Black-box entry subcircuit for sky130_fd_sc_hd__a21o_2 abstract view
.subckt sky130_fd_sc_hd__a21o_2 A1 A2 B1 VGND VNB VPB VPWR X
.ends

* Black-box entry subcircuit for sky130_fd_sc_hd__a311o_1 abstract view
.subckt sky130_fd_sc_hd__a311o_1 A1 A2 A3 B1 C1 VGND VNB VPB VPWR X
.ends

* Black-box entry subcircuit for sky130_fd_sc_hd__or3b_1 abstract view
.subckt sky130_fd_sc_hd__or3b_1 A B C_N VGND VNB VPB VPWR X
.ends

* Black-box entry subcircuit for sky130_fd_sc_hd__or2b_4 abstract view
.subckt sky130_fd_sc_hd__or2b_4 A B_N VGND VNB VPB VPWR X
.ends

* Black-box entry subcircuit for sky130_fd_sc_hd__clkbuf_16 abstract view
.subckt sky130_fd_sc_hd__clkbuf_16 A VGND VNB VPB VPWR X
.ends

* Black-box entry subcircuit for sky130_fd_sc_hd__o21bai_2 abstract view
.subckt sky130_fd_sc_hd__o21bai_2 A1 A2 B1_N VGND VNB VPB VPWR Y
.ends

* Black-box entry subcircuit for sky130_fd_sc_hd__or3_2 abstract view
.subckt sky130_fd_sc_hd__or3_2 A B C VGND VNB VPB VPWR X
.ends

* Black-box entry subcircuit for sky130_fd_sc_hd__o21ai_2 abstract view
.subckt sky130_fd_sc_hd__o21ai_2 A1 A2 B1 VGND VNB VPB VPWR Y
.ends

* Black-box entry subcircuit for sky130_fd_sc_hd__xnor2_1 abstract view
.subckt sky130_fd_sc_hd__xnor2_1 A B VGND VNB VPB VPWR Y
.ends

* Black-box entry subcircuit for sky130_fd_sc_hd__nor2_2 abstract view
.subckt sky130_fd_sc_hd__nor2_2 A B VGND VNB VPB VPWR Y
.ends

* Black-box entry subcircuit for sky130_fd_sc_hd__o311a_2 abstract view
.subckt sky130_fd_sc_hd__o311a_2 A1 A2 A3 B1 C1 VGND VNB VPB VPWR X
.ends

* Black-box entry subcircuit for sky130_fd_sc_hd__a2bb2o_1 abstract view
.subckt sky130_fd_sc_hd__a2bb2o_1 A1_N A2_N B1 B2 VGND VNB VPB VPWR X
.ends

* Black-box entry subcircuit for sky130_fd_sc_hd__a211oi_4 abstract view
.subckt sky130_fd_sc_hd__a211oi_4 A1 A2 B1 C1 VGND VNB VPB VPWR Y
.ends

* Black-box entry subcircuit for sky130_fd_sc_hd__a21oi_4 abstract view
.subckt sky130_fd_sc_hd__a21oi_4 A1 A2 B1 VGND VNB VPB VPWR Y
.ends

* Black-box entry subcircuit for sky130_fd_sc_hd__o211a_1 abstract view
.subckt sky130_fd_sc_hd__o211a_1 A1 A2 B1 C1 VGND VNB VPB VPWR X
.ends

* Black-box entry subcircuit for sky130_fd_sc_hd__a21boi_2 abstract view
.subckt sky130_fd_sc_hd__a21boi_2 A1 A2 B1_N VGND VNB VPB VPWR Y
.ends

* Black-box entry subcircuit for sky130_fd_sc_hd__o21bai_4 abstract view
.subckt sky130_fd_sc_hd__o21bai_4 A1 A2 B1_N VGND VNB VPB VPWR Y
.ends

* Black-box entry subcircuit for sky130_fd_sc_hd__a2111oi_4 abstract view
.subckt sky130_fd_sc_hd__a2111oi_4 A1 A2 B1 C1 D1 VGND VNB VPB VPWR Y
.ends

* Black-box entry subcircuit for sky130_fd_sc_hd__o211ai_4 abstract view
.subckt sky130_fd_sc_hd__o211ai_4 A1 A2 B1 C1 VGND VNB VPB VPWR Y
.ends

* Black-box entry subcircuit for sky130_fd_sc_hd__o211a_4 abstract view
.subckt sky130_fd_sc_hd__o211a_4 A1 A2 B1 C1 VGND VNB VPB VPWR X
.ends

* Black-box entry subcircuit for sky130_fd_sc_hd__and2_4 abstract view
.subckt sky130_fd_sc_hd__and2_4 A B VGND VNB VPB VPWR X
.ends

* Black-box entry subcircuit for sky130_fd_sc_hd__a22oi_2 abstract view
.subckt sky130_fd_sc_hd__a22oi_2 A1 A2 B1 B2 VGND VNB VPB VPWR Y
.ends

* Black-box entry subcircuit for sky130_fd_sc_hd__o21a_4 abstract view
.subckt sky130_fd_sc_hd__o21a_4 A1 A2 B1 VGND VNB VPB VPWR X
.ends

* Black-box entry subcircuit for sky130_fd_sc_hd__a211oi_2 abstract view
.subckt sky130_fd_sc_hd__a211oi_2 A1 A2 B1 C1 VGND VNB VPB VPWR Y
.ends

* Black-box entry subcircuit for sky130_fd_sc_hd__o32a_4 abstract view
.subckt sky130_fd_sc_hd__o32a_4 A1 A2 A3 B1 B2 VGND VNB VPB VPWR X
.ends

* Black-box entry subcircuit for sky130_fd_sc_hd__xor2_1 abstract view
.subckt sky130_fd_sc_hd__xor2_1 A B VGND VNB VPB VPWR X
.ends

.subckt aludesign A[0] A[1] A[2] A[3] A[4] A[5] A[6] A[7] B[0] B[1] B[2] B[3] B[4]
+ B[5] B[6] B[7] VGND VPWR opcode[0] opcode[1] opcode[2] out[0] out[1] out[2] out[3]
+ out[4] out[5] out[6] out[7]
XFILLER_0_32_225 VGND VGND VPWR VPWR sky130_fd_sc_hd__decap_8
XFILLER_0_7_81 VPWR VGND VPWR VGND sky130_ef_sc_hd__decap_12
XTAP_TAPCELL_ROW_9_115 VGND VPWR sky130_fd_sc_hd__tapvpwrvgnd_1
X_294_ _219_ _222_ VGND VGND VPWR VPWR _223_ sky130_fd_sc_hd__xor2_2
X_432_ _106_ _107_ _108_ VGND VGND VPWR VPWR _109_ sky130_fd_sc_hd__nand3_4
XFILLER_0_23_225 VGND VGND VPWR VPWR sky130_fd_sc_hd__decap_8
XTAP_TAPCELL_ROW_23_172 VGND VPWR sky130_fd_sc_hd__tapvpwrvgnd_1
XTAP_TAPCELL_ROW_15_139 VGND VPWR sky130_fd_sc_hd__tapvpwrvgnd_1
X_501_ _175_ _177_ VGND VGND VPWR VPWR _178_ sky130_fd_sc_hd__nand2_1
Xrebuffer7 _060_ VGND VGND VPWR VPWR net35 sky130_fd_sc_hd__buf_2
X_363_ _019_ _041_ VGND VGND VPWR VPWR _042_ sky130_fd_sc_hd__and2_1
XFILLER_0_3_28 VGND VGND VPWR VPWR sky130_fd_sc_hd__fill_1
XFILLER_0_14_236 VGND VGND VPWR VPWR sky130_fd_sc_hd__decap_8
XFILLER_0_13_40 VPWR VGND VPWR VGND sky130_ef_sc_hd__decap_12
X_346_ _022_ _024_ VGND VGND VPWR VPWR _025_ sky130_fd_sc_hd__and2_2
XFILLER_0_18_29 VPWR VGND VPWR VGND sky130_ef_sc_hd__decap_12
X_415_ _090_ _091_ VGND VGND VPWR VPWR _092_ sky130_fd_sc_hd__nor2_4
X_277_ _182_ _197_ _205_ VGND VGND VPWR VPWR _207_ sky130_fd_sc_hd__and3_4
XFILLER_0_24_83 VGND VGND VPWR VPWR sky130_fd_sc_hd__fill_1
XFILLER_0_6_233 VGND VGND VPWR VPWR sky130_fd_sc_hd__decap_8
XTAP_TAPCELL_ROW_31_204 VGND VPWR sky130_fd_sc_hd__tapvpwrvgnd_1
XFILLER_0_29_39 VPWR VGND VPWR VGND sky130_ef_sc_hd__decap_12
XFILLER_0_28_103 VGND VGND VPWR VPWR sky130_fd_sc_hd__fill_2
XFILLER_0_10_41 VPWR VGND VPWR VGND sky130_ef_sc_hd__decap_12
XFILLER_0_0_29 VPWR VGND VPWR VGND sky130_ef_sc_hd__decap_12
XFILLER_0_3_225 VGND VGND VPWR VPWR sky130_fd_sc_hd__decap_4
X_329_ _005_ _006_ _008_ VGND VGND VPWR VPWR _009_ sky130_fd_sc_hd__and3_1
XFILLER_0_19_169 VGND VGND VPWR VPWR sky130_fd_sc_hd__decap_4
XFILLER_0_33_161 VGND VGND VPWR VPWR sky130_fd_sc_hd__decap_6
XFILLER_0_34_3 VPWR VGND VPWR VGND sky130_ef_sc_hd__decap_12
XFILLER_0_16_139 VGND VGND VPWR VPWR sky130_fd_sc_hd__fill_1
XFILLER_0_30_197 VGND VGND VPWR VPWR sky130_fd_sc_hd__decap_4
XFILLER_0_30_186 VGND VGND VPWR VPWR sky130_fd_sc_hd__decap_8
XFILLER_0_26_29 VPWR VGND VPWR VGND sky130_ef_sc_hd__decap_12
XFILLER_0_22_109 VGND VGND VPWR VPWR sky130_fd_sc_hd__decap_4
XFILLER_0_15_161 VGND VGND VPWR VPWR sky130_fd_sc_hd__decap_6
XFILLER_0_32_83 VGND VGND VPWR VPWR sky130_fd_sc_hd__fill_1
XFILLER_0_32_72 VGND VGND VPWR VPWR sky130_fd_sc_hd__fill_1
XANTENNA_5 _102_ VGND VGND VPWR VPWR sky130_fd_sc_hd__diode_2
Xrebuffer17 _170_ VGND VGND VPWR VPWR net45 sky130_fd_sc_hd__clkbuf_1
XFILLER_0_12_197 VPWR VGND VPWR VGND sky130_ef_sc_hd__decap_12
XFILLER_0_12_153 VPWR VGND VPWR VGND sky130_ef_sc_hd__decap_12
Xoutput20 net20 VGND VGND VPWR VPWR out[0] sky130_fd_sc_hd__buf_2
XFILLER_0_5_128 VPWR VGND VPWR VGND sky130_ef_sc_hd__decap_12
XFILLER_0_7_93 VPWR VGND VPWR VGND sky130_ef_sc_hd__decap_12
XTAP_TAPCELL_ROW_9_116 VGND VPWR sky130_fd_sc_hd__tapvpwrvgnd_1
Xrebuffer8 _076_ VGND VGND VPWR VPWR net36 sky130_fd_sc_hd__dlygate4sd1_1
XTAP_TAPCELL_ROW_23_173 VGND VPWR sky130_fd_sc_hd__tapvpwrvgnd_1
X_362_ _021_ _040_ VGND VGND VPWR VPWR _041_ sky130_fd_sc_hd__xnor2_2
X_293_ _183_ _220_ _221_ VGND VGND VPWR VPWR _222_ sky130_fd_sc_hd__a21bo_1
X_500_ _187_ _133_ _135_ _200_ _181_ VGND VGND VPWR VPWR _177_ sky130_fd_sc_hd__o221a_1
X_431_ _072_ _067_ _066_ VGND VGND VPWR VPWR _108_ sky130_fd_sc_hd__a21bo_1
XFILLER_0_2_109 VPWR VGND VPWR VGND sky130_ef_sc_hd__decap_12
XFILLER_0_13_52 VGND VGND VPWR VPWR sky130_fd_sc_hd__decap_4
XFILLER_0_20_229 VPWR VGND VPWR VGND sky130_ef_sc_hd__decap_12
XFILLER_0_18_19 VGND VGND VPWR VPWR sky130_fd_sc_hd__decap_8
X_345_ _023_ VGND VGND VPWR VPWR _024_ sky130_fd_sc_hd__inv_2
X_414_ _176_ net15 _089_ VGND VGND VPWR VPWR _091_ sky130_fd_sc_hd__a21oi_2
XFILLER_0_24_51 VPWR VGND VPWR VGND sky130_ef_sc_hd__decap_12
X_276_ _183_ net37 _197_ VGND VGND VPWR VPWR _206_ sky130_fd_sc_hd__a21oi_2
XPHY_EDGE_ROW_21_Right_21 VGND VGND VPWR VPWR sky130_fd_sc_hd__decap_3
XPHY_EDGE_ROW_12_Right_12 VGND VGND VPWR VPWR sky130_fd_sc_hd__decap_3
XFILLER_0_4_83 VGND VGND VPWR VPWR sky130_fd_sc_hd__fill_1
XFILLER_0_36_181 VGND VGND VPWR VPWR sky130_fd_sc_hd__decap_4
XTAP_TAPCELL_ROW_31_205 VGND VPWR sky130_fd_sc_hd__tapvpwrvgnd_1
XPHY_EDGE_ROW_30_Right_30 VGND VGND VPWR VPWR sky130_fd_sc_hd__decap_3
X_259_ net19 _185_ VGND VGND VPWR VPWR _190_ sky130_fd_sc_hd__nor2_4
X_328_ net1 _218_ _221_ _007_ VGND VGND VPWR VPWR _008_ sky130_fd_sc_hd__a31o_1
XFILLER_0_3_204 VPWR VGND VPWR VGND sky130_ef_sc_hd__decap_12
XFILLER_0_36_7 VPWR VGND VPWR VGND sky130_ef_sc_hd__decap_12
XFILLER_0_35_61 VGND VGND VPWR VPWR sky130_fd_sc_hd__fill_1
XFILLER_0_27_181 VGND VGND VPWR VPWR sky130_fd_sc_hd__decap_4
XFILLER_0_19_104 VGND VGND VPWR VPWR sky130_fd_sc_hd__decap_8
XFILLER_0_19_73 VGND VGND VPWR VPWR sky130_fd_sc_hd__fill_2
XFILLER_0_10_53 VPWR VGND VPWR VGND sky130_ef_sc_hd__decap_12
XFILLER_0_24_195 VGND VGND VPWR VPWR sky130_fd_sc_hd__fill_1
XFILLER_0_24_162 VPWR VGND VPWR VGND sky130_ef_sc_hd__decap_12
XFILLER_0_27_3 VGND VGND VPWR VPWR sky130_fd_sc_hd__fill_1
Xrebuffer18 _031_ VGND VGND VPWR VPWR net46 sky130_fd_sc_hd__dlymetal6s2s_1
XFILLER_0_21_110 VGND VGND VPWR VPWR sky130_fd_sc_hd__fill_2
XFILLER_0_16_85 VPWR VGND VPWR VGND sky130_ef_sc_hd__decap_12
XFILLER_0_16_41 VPWR VGND VPWR VGND sky130_ef_sc_hd__decap_12
XFILLER_0_13_9 VPWR VGND VPWR VGND sky130_ef_sc_hd__decap_12
XANTENNA_6 _117_ VGND VGND VPWR VPWR sky130_fd_sc_hd__diode_2
XFILLER_0_6_18 VGND VGND VPWR VPWR sky130_fd_sc_hd__decap_8
XFILLER_0_6_29 VPWR VGND VPWR VGND sky130_ef_sc_hd__decap_12
XFILLER_0_32_40 VGND VGND VPWR VPWR sky130_fd_sc_hd__fill_2
XFILLER_0_29_243 VGND VGND VPWR VPWR sky130_fd_sc_hd__fill_1
XFILLER_0_12_187 VGND VGND VPWR VPWR sky130_fd_sc_hd__decap_8
XFILLER_0_12_121 VPWR VGND VPWR VGND sky130_ef_sc_hd__decap_12
XPHY_EDGE_ROW_6_Right_6 VGND VGND VPWR VPWR sky130_fd_sc_hd__decap_3
Xoutput21 net21 VGND VGND VPWR VPWR out[1] sky130_fd_sc_hd__buf_2
XTAP_TAPCELL_ROW_26_182 VGND VPWR sky130_fd_sc_hd__tapvpwrvgnd_1
XFILLER_0_7_181 VPWR VGND VPWR VGND sky130_ef_sc_hd__decap_12
XFILLER_0_32_238 VGND VGND VPWR VPWR sky130_fd_sc_hd__fill_2
XFILLER_0_32_205 VGND VGND VPWR VPWR sky130_fd_sc_hd__decap_3
X_430_ _105_ _099_ _100_ VGND VGND VPWR VPWR _107_ sky130_fd_sc_hd__nand3_4
Xrebuffer9 _205_ VGND VGND VPWR VPWR net37 sky130_fd_sc_hd__clkbuf_2
X_292_ net2 net43 _217_ _182_ VGND VGND VPWR VPWR _221_ sky130_fd_sc_hd__a22o_1
XTAP_TAPCELL_ROW_9_117 VGND VPWR sky130_fd_sc_hd__tapvpwrvgnd_1
XFILLER_0_2_9 VGND VGND VPWR VPWR sky130_fd_sc_hd__decap_8
X_361_ _218_ _241_ _227_ net37 VGND VGND VPWR VPWR _040_ sky130_fd_sc_hd__o31a_2
XTAP_TAPCELL_ROW_3_90 VGND VPWR sky130_fd_sc_hd__tapvpwrvgnd_1
XFILLER_0_9_243 VGND VGND VPWR VPWR sky130_fd_sc_hd__fill_1
XFILLER_0_9_221 VGND VGND VPWR VPWR sky130_fd_sc_hd__decap_3
X_275_ net17 net18 net19 VGND VGND VPWR VPWR _205_ sky130_fd_sc_hd__nand3b_4
X_344_ net1 net2 net12 net13 VGND VGND VPWR VPWR _023_ sky130_fd_sc_hd__and4_1
XTAP_TAPCELL_ROW_11_122 VGND VPWR sky130_fd_sc_hd__tapvpwrvgnd_1
X_413_ net1 net15 _089_ VGND VGND VPWR VPWR _090_ sky130_fd_sc_hd__and3_2
XTAP_TAPCELL_ROW_34_214 VGND VPWR sky130_fd_sc_hd__tapvpwrvgnd_1
XFILLER_0_24_85 VGND VGND VPWR VPWR sky130_fd_sc_hd__decap_6
XFILLER_0_24_63 VPWR VGND VPWR VGND sky130_ef_sc_hd__decap_12
X_258_ _186_ _180_ VGND VGND VPWR VPWR _189_ sky130_fd_sc_hd__nor2_4
XFILLER_0_10_65 VPWR VGND VPWR VGND sky130_ef_sc_hd__decap_12
XTAP_TAPCELL_ROW_0_80 VGND VPWR sky130_fd_sc_hd__tapvpwrvgnd_1
X_327_ _182_ net2 net43 _217_ VGND VGND VPWR VPWR _007_ sky130_fd_sc_hd__and4_1
XFILLER_0_3_216 VGND VGND VPWR VPWR sky130_fd_sc_hd__decap_8
XPHY_EDGE_ROW_28_Left_65 VGND VGND VPWR VPWR sky130_fd_sc_hd__decap_3
XFILLER_0_24_174 VGND VGND VPWR VPWR sky130_fd_sc_hd__decap_4
XFILLER_0_21_53 VGND VGND VPWR VPWR sky130_fd_sc_hd__decap_3
XPHY_EDGE_ROW_12_Left_49 VGND VGND VPWR VPWR sky130_fd_sc_hd__decap_3
XFILLER_0_30_155 VPWR VGND VPWR VGND sky130_ef_sc_hd__decap_12
XFILLER_0_1_85 VGND VGND VPWR VPWR sky130_fd_sc_hd__fill_2
XANTENNA_7 _152_ VGND VGND VPWR VPWR sky130_fd_sc_hd__diode_2
XFILLER_0_29_233 VGND VGND VPWR VPWR sky130_fd_sc_hd__decap_3
Xrebuffer19 _069_ VGND VGND VPWR VPWR net47 sky130_fd_sc_hd__buf_2
XFILLER_0_16_97 VPWR VGND VPWR VGND sky130_ef_sc_hd__decap_12
XFILLER_0_16_53 VPWR VGND VPWR VGND sky130_ef_sc_hd__decap_12
XFILLER_0_12_133 VGND VGND VPWR VPWR sky130_fd_sc_hd__decap_6
Xoutput22 net22 VGND VGND VPWR VPWR out[2] sky130_fd_sc_hd__buf_2
XFILLER_0_7_193 VPWR VGND VPWR VGND sky130_ef_sc_hd__decap_12
XTAP_TAPCELL_ROW_26_183 VGND VPWR sky130_fd_sc_hd__tapvpwrvgnd_1
XFILLER_0_27_63 VPWR VGND VPWR VGND sky130_ef_sc_hd__decap_12
XFILLER_0_5_108 VGND VGND VPWR VPWR sky130_fd_sc_hd__decap_4
X_291_ _193_ _197_ _217_ VGND VGND VPWR VPWR _220_ sky130_fd_sc_hd__and3_1
XFILLER_0_32_217 VGND VGND VPWR VPWR sky130_fd_sc_hd__fill_1
X_360_ _189_ _037_ _038_ VGND VGND VPWR VPWR _039_ sky130_fd_sc_hd__and3_1
XFILLER_0_17_225 VPWR VGND VPWR VGND sky130_ef_sc_hd__decap_12
XPHY_EDGE_ROW_15_Left_52 VGND VGND VPWR VPWR sky130_fd_sc_hd__decap_3
XFILLER_0_4_141 VPWR VGND VPWR VGND sky130_ef_sc_hd__decap_12
XFILLER_0_4_185 VGND VGND VPWR VPWR sky130_fd_sc_hd__fill_2
X_489_ _163_ _162_ _164_ VGND VGND VPWR VPWR _165_ sky130_fd_sc_hd__a21o_1
XFILLER_0_14_228 VGND VGND VPWR VPWR sky130_fd_sc_hd__fill_2
XFILLER_0_14_217 VGND VGND VPWR VPWR sky130_fd_sc_hd__fill_2
XFILLER_0_13_21 VPWR VGND VPWR VGND sky130_ef_sc_hd__decap_12
XFILLER_0_20_209 VPWR VGND VPWR VGND sky130_ef_sc_hd__decap_12
XFILLER_0_9_233 VGND VGND VPWR VPWR sky130_fd_sc_hd__fill_1
XFILLER_0_1_199 VGND VGND VPWR VPWR sky130_fd_sc_hd__decap_8
XFILLER_0_1_111 VGND VGND VPWR VPWR sky130_fd_sc_hd__fill_1
XPHY_EDGE_ROW_0_Left_37 VGND VGND VPWR VPWR sky130_fd_sc_hd__decap_3
XTAP_TAPCELL_ROW_3_91 VGND VPWR sky130_fd_sc_hd__tapvpwrvgnd_1
X_343_ net2 net12 _021_ net1 VGND VGND VPWR VPWR _022_ sky130_fd_sc_hd__a22o_1
X_412_ net1 net14 _070_ net47 VGND VGND VPWR VPWR _089_ sky130_fd_sc_hd__a31o_1
XTAP_TAPCELL_ROW_11_123 VGND VPWR sky130_fd_sc_hd__tapvpwrvgnd_1
X_274_ net1 _183_ VGND VGND VPWR VPWR _204_ sky130_fd_sc_hd__or2b_1
XTAP_TAPCELL_ROW_34_215 VGND VPWR sky130_fd_sc_hd__tapvpwrvgnd_1
XFILLER_0_24_75 VGND VGND VPWR VPWR sky130_fd_sc_hd__decap_8
XFILLER_0_10_231 VPWR VGND VPWR VGND sky130_ef_sc_hd__decap_12
XFILLER_0_36_194 VGND VGND VPWR VPWR sky130_fd_sc_hd__fill_2
XFILLER_0_28_139 VGND VGND VPWR VPWR sky130_fd_sc_hd__fill_1
X_257_ _176_ _183_ _187_ VGND VGND VPWR VPWR _188_ sky130_fd_sc_hd__nand3_1
XFILLER_0_10_77 VGND VGND VPWR VPWR sky130_fd_sc_hd__decap_6
XFILLER_0_10_11 VGND VGND VPWR VPWR sky130_fd_sc_hd__decap_3
XTAP_TAPCELL_ROW_0_81 VGND VPWR sky130_fd_sc_hd__tapvpwrvgnd_1
X_326_ _003_ _004_ _002_ VGND VGND VPWR VPWR _006_ sky130_fd_sc_hd__o21ai_1
XFILLER_0_34_109 VPWR VGND VPWR VGND sky130_ef_sc_hd__decap_12
XFILLER_0_27_150 VPWR VGND VPWR VGND sky130_ef_sc_hd__decap_12
XFILLER_0_33_120 VGND VGND VPWR VPWR sky130_fd_sc_hd__fill_1
X_309_ _217_ _195_ _226_ _237_ VGND VGND VPWR VPWR net22 sky130_fd_sc_hd__o2bb2a_1
XFILLER_0_21_21 VPWR VGND VPWR VGND sky130_ef_sc_hd__decap_12
XFILLER_0_16_109 VPWR VGND VPWR VGND sky130_ef_sc_hd__decap_12
XFILLER_0_0_209 VPWR VGND VPWR VGND sky130_ef_sc_hd__decap_12
XPHY_EDGE_ROW_3_Left_40 VGND VGND VPWR VPWR sky130_fd_sc_hd__decap_3
XFILLER_0_24_197 VPWR VGND VPWR VGND sky130_ef_sc_hd__decap_12
XFILLER_0_21_167 VGND VGND VPWR VPWR sky130_fd_sc_hd__fill_1
XANTENNA_8 _207_ VGND VGND VPWR VPWR sky130_fd_sc_hd__diode_2
XFILLER_0_32_64 VGND VGND VPWR VPWR sky130_fd_sc_hd__fill_1
XFILLER_0_29_223 VGND VGND VPWR VPWR sky130_fd_sc_hd__fill_1
XFILLER_0_16_65 VPWR VGND VPWR VGND sky130_ef_sc_hd__decap_12
XFILLER_0_16_21 VGND VGND VPWR VPWR sky130_fd_sc_hd__decap_6
XFILLER_0_12_178 VGND VGND VPWR VPWR sky130_fd_sc_hd__fill_1
XFILLER_0_8_139 VGND VGND VPWR VPWR sky130_fd_sc_hd__fill_1
XFILLER_0_32_3 VPWR VGND VPWR VGND sky130_ef_sc_hd__decap_12
Xoutput23 net23 VGND VGND VPWR VPWR out[3] sky130_fd_sc_hd__buf_2
XTAP_TAPCELL_ROW_26_184 VGND VPWR sky130_fd_sc_hd__tapvpwrvgnd_1
XFILLER_0_27_75 VGND VGND VPWR VPWR sky130_fd_sc_hd__decap_4
XFILLER_0_17_237 VGND VGND VPWR VPWR sky130_fd_sc_hd__decap_6
XFILLER_0_17_204 VGND VGND VPWR VPWR sky130_fd_sc_hd__decap_6
XFILLER_0_4_153 VPWR VGND VPWR VGND sky130_ef_sc_hd__decap_12
X_290_ _176_ _218_ VGND VGND VPWR VPWR _219_ sky130_fd_sc_hd__nand2_1
X_488_ _099_ _107_ VGND VGND VPWR VPWR _164_ sky130_fd_sc_hd__nand2_2
XFILLER_0_13_33 VGND VGND VPWR VPWR sky130_fd_sc_hd__fill_1
XFILLER_0_1_167 VGND VGND VPWR VPWR sky130_fd_sc_hd__fill_1
XFILLER_0_1_145 VGND VGND VPWR VPWR sky130_fd_sc_hd__fill_2
XTAP_TAPCELL_ROW_3_92 VGND VPWR sky130_fd_sc_hd__tapvpwrvgnd_1
X_273_ net19 _180_ _185_ VGND VGND VPWR VPWR _203_ sky130_fd_sc_hd__and3_4
X_342_ net13 VGND VGND VPWR VPWR _021_ sky130_fd_sc_hd__buf_12
XTAP_TAPCELL_ROW_11_124 VGND VPWR sky130_fd_sc_hd__tapvpwrvgnd_1
X_411_ net50 _074_ _075_ VGND VGND VPWR VPWR _088_ sky130_fd_sc_hd__nand3_2
XTAP_TAPCELL_ROW_5_100 VGND VPWR sky130_fd_sc_hd__tapvpwrvgnd_1
XTAP_TAPCELL_ROW_34_216 VGND VPWR sky130_fd_sc_hd__tapvpwrvgnd_1
XFILLER_0_10_243 VGND VGND VPWR VPWR sky130_fd_sc_hd__fill_1
XFILLER_0_4_97 VGND VGND VPWR VPWR sky130_fd_sc_hd__decap_4
X_256_ net17 _186_ VGND VGND VPWR VPWR _187_ sky130_fd_sc_hd__nand2_2
XFILLER_0_19_65 VGND VGND VPWR VPWR sky130_fd_sc_hd__decap_8
XFILLER_0_19_21 VPWR VGND VPWR VGND sky130_ef_sc_hd__decap_12
X_325_ _002_ _003_ _004_ VGND VGND VPWR VPWR _005_ sky130_fd_sc_hd__or3_4
XFILLER_0_10_89 VPWR VGND VPWR VGND sky130_ef_sc_hd__decap_12
XFILLER_0_35_42 VPWR VGND VPWR VGND sky130_ef_sc_hd__decap_12
XFILLER_0_27_162 VGND VGND VPWR VPWR sky130_fd_sc_hd__decap_6
XFILLER_0_24_154 VGND VGND VPWR VPWR sky130_fd_sc_hd__fill_1
XFILLER_0_21_66 VPWR VGND VPWR VGND sky130_ef_sc_hd__decap_12
XFILLER_0_21_33 VPWR VGND VPWR VGND sky130_ef_sc_hd__decap_12
X_308_ _231_ _232_ _236_ _195_ VGND VGND VPWR VPWR _237_ sky130_fd_sc_hd__a211o_1
XFILLER_0_1_65 VPWR VGND VPWR VGND sky130_ef_sc_hd__decap_12
XFILLER_0_1_54 VGND VGND VPWR VPWR sky130_fd_sc_hd__fill_2
XFILLER_0_1_21 VPWR VGND VPWR VGND sky130_ef_sc_hd__decap_12
XFILLER_0_30_124 VPWR VGND VPWR VGND sky130_ef_sc_hd__decap_12
XFILLER_0_29_202 VGND VGND VPWR VPWR sky130_fd_sc_hd__decap_6
XFILLER_0_21_113 VPWR VGND VPWR VGND sky130_ef_sc_hd__decap_12
XFILLER_0_21_102 VGND VGND VPWR VPWR sky130_fd_sc_hd__decap_8
XFILLER_0_16_77 VGND VGND VPWR VPWR sky130_fd_sc_hd__decap_6
XANTENNA_9 _246_ VGND VGND VPWR VPWR sky130_fd_sc_hd__diode_2
Xoutput24 net24 VGND VGND VPWR VPWR out[4] sky130_fd_sc_hd__buf_2
XPHY_EDGE_ROW_28_Right_28 VGND VGND VPWR VPWR sky130_fd_sc_hd__decap_3
XTAP_TAPCELL_ROW_26_185 VGND VPWR sky130_fd_sc_hd__tapvpwrvgnd_1
XPHY_EDGE_ROW_19_Right_19 VGND VGND VPWR VPWR sky130_fd_sc_hd__decap_3
XFILLER_0_4_165 VGND VGND VPWR VPWR sky130_fd_sc_hd__decap_4
XFILLER_0_7_31 VGND VGND VPWR VPWR sky130_fd_sc_hd__decap_6
XFILLER_0_31_241 VGND VGND VPWR VPWR sky130_fd_sc_hd__decap_3
X_487_ _153_ _154_ _161_ VGND VGND VPWR VPWR _163_ sky130_fd_sc_hd__nand3_2
XFILLER_0_1_113 VPWR VGND VPWR VGND sky130_ef_sc_hd__decap_12
XTAP_TAPCELL_ROW_3_93 VGND VPWR sky130_fd_sc_hd__tapvpwrvgnd_1
X_341_ _176_ _241_ _010_ _009_ VGND VGND VPWR VPWR _020_ sky130_fd_sc_hd__a31o_1
X_272_ _193_ _197_ _198_ _201_ VGND VGND VPWR VPWR _202_ sky130_fd_sc_hd__o22a_1
XTAP_TAPCELL_ROW_20_158 VGND VPWR sky130_fd_sc_hd__tapvpwrvgnd_1
X_410_ _052_ _195_ _087_ VGND VGND VPWR VPWR net25 sky130_fd_sc_hd__a21oi_1
XTAP_TAPCELL_ROW_5_101 VGND VPWR sky130_fd_sc_hd__tapvpwrvgnd_1
XTAP_TAPCELL_ROW_34_217 VGND VPWR sky130_fd_sc_hd__tapvpwrvgnd_1
XFILLER_0_24_99 VPWR VGND VPWR VGND sky130_ef_sc_hd__decap_12
XTAP_TAPCELL_ROW_11_125 VGND VPWR sky130_fd_sc_hd__tapvpwrvgnd_1
XFILLER_0_4_43 VPWR VGND VPWR VGND sky130_ef_sc_hd__decap_12
XFILLER_0_36_141 VPWR VGND VPWR VGND sky130_ef_sc_hd__decap_12
X_324_ net43 net3 _238_ _182_ VGND VGND VPWR VPWR _004_ sky130_fd_sc_hd__a22oi_4
X_255_ net19 VGND VGND VPWR VPWR _186_ sky130_fd_sc_hd__inv_2
XFILLER_0_35_54 VGND VGND VPWR VPWR sky130_fd_sc_hd__fill_2
XFILLER_0_35_32 VGND VGND VPWR VPWR sky130_fd_sc_hd__fill_1
XFILLER_0_19_33 VGND VGND VPWR VPWR sky130_fd_sc_hd__decap_4
XFILLER_0_18_141 VGND VGND VPWR VPWR sky130_fd_sc_hd__fill_1
XFILLER_0_24_111 VGND VGND VPWR VPWR sky130_fd_sc_hd__decap_6
X_307_ _217_ _218_ _190_ _235_ VGND VGND VPWR VPWR _236_ sky130_fd_sc_hd__a31o_1
XFILLER_0_21_78 VPWR VGND VPWR VGND sky130_ef_sc_hd__decap_12
XFILLER_0_21_45 VGND VGND VPWR VPWR sky130_fd_sc_hd__decap_8
XFILLER_0_1_33 VPWR VGND VPWR VGND sky130_ef_sc_hd__decap_12
XFILLER_0_30_136 VGND VGND VPWR VPWR sky130_fd_sc_hd__decap_4
XFILLER_0_1_77 VGND VGND VPWR VPWR sky130_fd_sc_hd__decap_8
XFILLER_0_29_225 VGND VGND VPWR VPWR sky130_fd_sc_hd__decap_8