* NGSPICE file created from counter.ext - technology: sky130A

* Black-box entry subcircuit for sky130_fd_sc_hd__fill_2 abstract view
.subckt sky130_fd_sc_hd__fill_2 VGND VNB VPB VPWR
.ends

* Black-box entry subcircuit for sky130_ef_sc_hd__decap_12 abstract view
.subckt sky130_ef_sc_hd__decap_12 VPWR VGND VPB VNB
.ends

* Black-box entry subcircuit for sky130_fd_sc_hd__tapvpwrvgnd_1 abstract view
.subckt sky130_fd_sc_hd__tapvpwrvgnd_1 VGND VPWR
.ends

* Black-box entry subcircuit for sky130_fd_sc_hd__buf_1 abstract view
.subckt sky130_fd_sc_hd__buf_1 A VGND VNB VPB VPWR X
.ends

* Black-box entry subcircuit for sky130_fd_sc_hd__inv_2 abstract view
.subckt sky130_fd_sc_hd__inv_2 A VGND VNB VPB VPWR Y
.ends

* Black-box entry subcircuit for sky130_fd_sc_hd__clkbuf_8 abstract view
.subckt sky130_fd_sc_hd__clkbuf_8 A VGND VNB VPB VPWR X
.ends

* Black-box entry subcircuit for sky130_fd_sc_hd__decap_3 abstract view
.subckt sky130_fd_sc_hd__decap_3 VGND VNB VPB VPWR
.ends

* Black-box entry subcircuit for sky130_fd_sc_hd__and4_1 abstract view
.subckt sky130_fd_sc_hd__and4_1 A B C D VGND VNB VPB VPWR X
.ends

* Black-box entry subcircuit for sky130_fd_sc_hd__a21oi_1 abstract view
.subckt sky130_fd_sc_hd__a21oi_1 A1 A2 B1 VGND VNB VPB VPWR Y
.ends

* Black-box entry subcircuit for sky130_fd_sc_hd__o21ai_1 abstract view
.subckt sky130_fd_sc_hd__o21ai_1 A1 A2 B1 VGND VNB VPB VPWR Y
.ends

* Black-box entry subcircuit for sky130_fd_sc_hd__fill_1 abstract view
.subckt sky130_fd_sc_hd__fill_1 VGND VNB VPB VPWR
.ends

* Black-box entry subcircuit for sky130_fd_sc_hd__decap_4 abstract view
.subckt sky130_fd_sc_hd__decap_4 VGND VNB VPB VPWR
.ends

* Black-box entry subcircuit for sky130_fd_sc_hd__decap_8 abstract view
.subckt sky130_fd_sc_hd__decap_8 VGND VNB VPB VPWR
.ends

* Black-box entry subcircuit for sky130_fd_sc_hd__decap_6 abstract view
.subckt sky130_fd_sc_hd__decap_6 VGND VNB VPB VPWR
.ends

* Black-box entry subcircuit for sky130_fd_sc_hd__diode_2 abstract view
.subckt sky130_fd_sc_hd__diode_2 DIODE VGND VNB VPB VPWR
.ends

* Black-box entry subcircuit for sky130_fd_sc_hd__and3_1 abstract view
.subckt sky130_fd_sc_hd__and3_1 A B C VGND VNB VPB VPWR X
.ends

* Black-box entry subcircuit for sky130_fd_sc_hd__nand2_1 abstract view
.subckt sky130_fd_sc_hd__nand2_1 A B VGND VNB VPB VPWR Y
.ends

* Black-box entry subcircuit for sky130_fd_sc_hd__nor2_1 abstract view
.subckt sky130_fd_sc_hd__nor2_1 A B VGND VNB VPB VPWR Y
.ends

* Black-box entry subcircuit for sky130_fd_sc_hd__nor3b_1 abstract view
.subckt sky130_fd_sc_hd__nor3b_1 A B C_N VGND VNB VPB VPWR Y
.ends

* Black-box entry subcircuit for sky130_fd_sc_hd__a31o_1 abstract view
.subckt sky130_fd_sc_hd__a31o_1 A1 A2 A3 B1 VGND VNB VPB VPWR X
.ends

* Black-box entry subcircuit for sky130_fd_sc_hd__a21o_1 abstract view
.subckt sky130_fd_sc_hd__a21o_1 A1 A2 B1 VGND VNB VPB VPWR X
.ends

* Black-box entry subcircuit for sky130_fd_sc_hd__or2b_1 abstract view
.subckt sky130_fd_sc_hd__or2b_1 A B_N VGND VNB VPB VPWR X
.ends

* Black-box entry subcircuit for sky130_fd_sc_hd__and2b_1 abstract view
.subckt sky130_fd_sc_hd__and2b_1 A_N B VGND VNB VPB VPWR X
.ends

* Black-box entry subcircuit for sky130_fd_sc_hd__clkbuf_1 abstract view
.subckt sky130_fd_sc_hd__clkbuf_1 A VGND VNB VPB VPWR X
.ends

* Black-box entry subcircuit for sky130_fd_sc_hd__or3_2 abstract view
.subckt sky130_fd_sc_hd__or3_2 A B C VGND VNB VPB VPWR X
.ends

* Black-box entry subcircuit for sky130_fd_sc_hd__clkinv_2 abstract view
.subckt sky130_fd_sc_hd__clkinv_2 A VGND VNB VPB VPWR Y
.ends

* Black-box entry subcircuit for sky130_fd_sc_hd__or2_1 abstract view
.subckt sky130_fd_sc_hd__or2_1 A B VGND VNB VPB VPWR X
.ends

* Black-box entry subcircuit for sky130_fd_sc_hd__and2_2 abstract view
.subckt sky130_fd_sc_hd__and2_2 A B VGND VNB VPB VPWR X
.ends

* Black-box entry subcircuit for sky130_fd_sc_hd__o21a_1 abstract view
.subckt sky130_fd_sc_hd__o21a_1 A1 A2 B1 VGND VNB VPB VPWR X
.ends

* Black-box entry subcircuit for sky130_fd_sc_hd__clkbuf_4 abstract view
.subckt sky130_fd_sc_hd__clkbuf_4 A VGND VNB VPB VPWR X
.ends

* Black-box entry subcircuit for sky130_fd_sc_hd__and2_1 abstract view
.subckt sky130_fd_sc_hd__and2_1 A B VGND VNB VPB VPWR X
.ends

* Black-box entry subcircuit for sky130_fd_sc_hd__clkinv_1 abstract view
.subckt sky130_fd_sc_hd__clkinv_1 A VGND VNB VPB VPWR Y
.ends

* Black-box entry subcircuit for sky130_fd_sc_hd__dfrtp_1 abstract view
.subckt sky130_fd_sc_hd__dfrtp_1 CLK D RESET_B VGND VNB VPB VPWR Q
.ends

* Black-box entry subcircuit for sky130_fd_sc_hd__nand4_2 abstract view
.subckt sky130_fd_sc_hd__nand4_2 A B C D VGND VNB VPB VPWR Y
.ends

* Black-box entry subcircuit for sky130_fd_sc_hd__clkbuf_16 abstract view
.subckt sky130_fd_sc_hd__clkbuf_16 A VGND VNB VPB VPWR X
.ends

* Black-box entry subcircuit for sky130_fd_sc_hd__dfrtp_2 abstract view
.subckt sky130_fd_sc_hd__dfrtp_2 CLK D RESET_B VGND VNB VPB VPWR Q
.ends

* Black-box entry subcircuit for sky130_fd_sc_hd__and4_2 abstract view
.subckt sky130_fd_sc_hd__and4_2 A B C D VGND VNB VPB VPWR X
.ends

* Black-box entry subcircuit for sky130_fd_sc_hd__nand3_2 abstract view
.subckt sky130_fd_sc_hd__nand3_2 A B C VGND VNB VPB VPWR Y
.ends

* Black-box entry subcircuit for sky130_fd_sc_hd__and3b_1 abstract view
.subckt sky130_fd_sc_hd__and3b_1 A_N B C VGND VNB VPB VPWR X
.ends

* Black-box entry subcircuit for sky130_fd_sc_hd__dfrtp_4 abstract view
.subckt sky130_fd_sc_hd__dfrtp_4 CLK D RESET_B VGND VNB VPB VPWR Q
.ends

* Black-box entry subcircuit for sky130_fd_sc_hd__and4_4 abstract view
.subckt sky130_fd_sc_hd__and4_4 A B C D VGND VNB VPB VPWR X
.ends

* Black-box entry subcircuit for sky130_fd_sc_hd__nand3_1 abstract view
.subckt sky130_fd_sc_hd__nand3_1 A B C VGND VNB VPB VPWR Y
.ends

* Black-box entry subcircuit for sky130_fd_sc_hd__and3_2 abstract view
.subckt sky130_fd_sc_hd__and3_2 A B C VGND VNB VPB VPWR X
.ends

* Black-box entry subcircuit for sky130_fd_sc_hd__xnor2_1 abstract view
.subckt sky130_fd_sc_hd__xnor2_1 A B VGND VNB VPB VPWR Y
.ends

* Black-box entry subcircuit for sky130_fd_sc_hd__o31ai_4 abstract view
.subckt sky130_fd_sc_hd__o31ai_4 A1 A2 A3 B1 VGND VNB VPB VPWR Y
.ends

* Black-box entry subcircuit for sky130_fd_sc_hd__o211a_1 abstract view
.subckt sky130_fd_sc_hd__o211a_1 A1 A2 B1 C1 VGND VNB VPB VPWR X
.ends

* Black-box entry subcircuit for sky130_fd_sc_hd__o311a_1 abstract view
.subckt sky130_fd_sc_hd__o311a_1 A1 A2 A3 B1 C1 VGND VNB VPB VPWR X
.ends

* Black-box entry subcircuit for sky130_fd_sc_hd__a21boi_1 abstract view
.subckt sky130_fd_sc_hd__a21boi_1 A1 A2 B1_N VGND VNB VPB VPWR Y
.ends

* Black-box entry subcircuit for sky130_fd_sc_hd__xor2_1 abstract view
.subckt sky130_fd_sc_hd__xor2_1 A B VGND VNB VPB VPWR X
.ends

* Black-box entry subcircuit for sky130_fd_sc_hd__o21ai_2 abstract view
.subckt sky130_fd_sc_hd__o21ai_2 A1 A2 B1 VGND VNB VPB VPWR Y
.ends

* Black-box entry subcircuit for sky130_fd_sc_hd__a31o_2 abstract view
.subckt sky130_fd_sc_hd__a31o_2 A1 A2 A3 B1 VGND VNB VPB VPWR X
.ends

* Black-box entry subcircuit for sky130_fd_sc_hd__o221a_1 abstract view
.subckt sky130_fd_sc_hd__o221a_1 A1 A2 B1 B2 C1 VGND VNB VPB VPWR X
.ends

* Black-box entry subcircuit for sky130_fd_sc_hd__or4_2 abstract view
.subckt sky130_fd_sc_hd__or4_2 A B C D VGND VNB VPB VPWR X
.ends

* Black-box entry subcircuit for sky130_fd_sc_hd__nor4_2 abstract view
.subckt sky130_fd_sc_hd__nor4_2 A B C D VGND VNB VPB VPWR Y
.ends

* Black-box entry subcircuit for sky130_fd_sc_hd__and4bb_1 abstract view
.subckt sky130_fd_sc_hd__and4bb_1 A_N B_N C D VGND VNB VPB VPWR X
.ends

* Black-box entry subcircuit for sky130_fd_sc_hd__or4_1 abstract view
.subckt sky130_fd_sc_hd__or4_1 A B C D VGND VNB VPB VPWR X
.ends

* Black-box entry subcircuit for sky130_fd_sc_hd__a41o_1 abstract view
.subckt sky130_fd_sc_hd__a41o_1 A1 A2 A3 A4 B1 VGND VNB VPB VPWR X
.ends

* Black-box entry subcircuit for sky130_fd_sc_hd__a21oi_2 abstract view
.subckt sky130_fd_sc_hd__a21oi_2 A1 A2 B1 VGND VNB VPB VPWR Y
.ends

* Black-box entry subcircuit for sky130_fd_sc_hd__o2bb2a_1 abstract view
.subckt sky130_fd_sc_hd__o2bb2a_1 A1_N A2_N B1 B2 VGND VNB VPB VPWR X
.ends

* Black-box entry subcircuit for sky130_fd_sc_hd__buf_4 abstract view
.subckt sky130_fd_sc_hd__buf_4 A VGND VNB VPB VPWR X
.ends

.subckt counter VGND VPWR clk rst seg[0] seg[1] seg[2] seg[3] seg[4] seg[5] seg[6]
XFILLER_0_17_233 VGND VGND VPWR VPWR sky130_fd_sc_hd__fill_2
XFILLER_0_17_222 VGND VGND VPWR VPWR sky130_fd_sc_hd__fill_2
XFILLER_0_7_81 VPWR VGND VPWR VGND sky130_ef_sc_hd__decap_12
XTAP_TAPCELL_ROW_9_115 VGND VPWR sky130_fd_sc_hd__tapvpwrvgnd_1
XTAP_TAPCELL_ROW_23_172 VGND VPWR sky130_fd_sc_hd__tapvpwrvgnd_1
XTAP_TAPCELL_ROW_15_139 VGND VPWR sky130_fd_sc_hd__tapvpwrvgnd_1
X_294_ _151_ VGND VGND VPWR VPWR _009_ sky130_fd_sc_hd__buf_1
X_363_ _181_ VGND VGND VPWR VPWR _052_ sky130_fd_sc_hd__inv_2
XFILLER_0_1_196 VPWR VGND VPWR VGND sky130_ef_sc_hd__decap_12
XFILLER_0_18_29 VPWR VGND VPWR VGND sky130_ef_sc_hd__decap_12
X_346_ net1 VGND VGND VPWR VPWR _180_ sky130_fd_sc_hd__clkbuf_8
XFILLER_0_9_241 VGND VGND VPWR VPWR sky130_fd_sc_hd__decap_3
XFILLER_0_24_61 VGND VGND VPWR VPWR sky130_fd_sc_hd__decap_3
X_277_ one_second_counter\[15\] one_second_counter\[14\] one_second_counter\[12\]
+ one_second_counter\[13\] VGND VGND VPWR VPWR _138_ sky130_fd_sc_hd__and4_1
X_200_ _078_ _079_ count\[3\] VGND VGND VPWR VPWR _081_ sky130_fd_sc_hd__a21oi_1
XTAP_TAPCELL_ROW_31_204 VGND VPWR sky130_fd_sc_hd__tapvpwrvgnd_1
XFILLER_0_10_85 VPWR VGND VPWR VGND sky130_ef_sc_hd__decap_12
X_329_ count\[1\] _176_ _175_ VGND VGND VPWR VPWR net5 sky130_fd_sc_hd__o21ai_1
XFILLER_0_0_29 VPWR VGND VPWR VGND sky130_ef_sc_hd__decap_12
XFILLER_0_3_225 VGND VGND VPWR VPWR sky130_fd_sc_hd__fill_1
XFILLER_0_9_27 VPWR VGND VPWR VGND sky130_ef_sc_hd__decap_12
XFILLER_0_34_139 VGND VGND VPWR VPWR sky130_fd_sc_hd__fill_1
XFILLER_0_19_169 VGND VGND VPWR VPWR sky130_fd_sc_hd__decap_4
XFILLER_0_19_103 VGND VGND VPWR VPWR sky130_fd_sc_hd__decap_8
XFILLER_0_33_161 VGND VGND VPWR VPWR sky130_fd_sc_hd__decap_6
XFILLER_0_0_239 VGND VGND VPWR VPWR sky130_fd_sc_hd__fill_2
XFILLER_0_34_3 VPWR VGND VPWR VGND sky130_ef_sc_hd__decap_12
XFILLER_0_24_194 VGND VGND VPWR VPWR sky130_fd_sc_hd__fill_2
XFILLER_0_16_117 VGND VGND VPWR VPWR sky130_fd_sc_hd__fill_2
XFILLER_0_30_197 VPWR VGND VPWR VGND sky130_ef_sc_hd__decap_12
XFILLER_0_30_153 VPWR VGND VPWR VGND sky130_ef_sc_hd__decap_12
XFILLER_0_30_131 VGND VGND VPWR VPWR sky130_fd_sc_hd__decap_8
XFILLER_0_26_29 VPWR VGND VPWR VGND sky130_ef_sc_hd__decap_12
XFILLER_0_32_83 VGND VGND VPWR VPWR sky130_fd_sc_hd__fill_1
XFILLER_0_29_220 VGND VGND VPWR VPWR sky130_fd_sc_hd__decap_4
XFILLER_0_21_153 VPWR VGND VPWR VGND sky130_ef_sc_hd__decap_12
XFILLER_0_16_62 VPWR VGND VPWR VGND sky130_ef_sc_hd__decap_12
XFILLER_0_8_125 VPWR VGND VPWR VGND sky130_ef_sc_hd__decap_12
XANTENNA_5 _094_ VGND VGND VPWR VPWR sky130_fd_sc_hd__diode_2
XFILLER_0_12_197 VPWR VGND VPWR VGND sky130_ef_sc_hd__decap_12
XFILLER_0_12_153 VPWR VGND VPWR VGND sky130_ef_sc_hd__decap_12
Xoutput7 net7 VGND VGND VPWR VPWR seg[5] sky130_fd_sc_hd__buf_1
XFILLER_0_32_226 VPWR VGND VPWR VGND sky130_ef_sc_hd__decap_12
XFILLER_0_7_93 VGND VGND VPWR VPWR sky130_fd_sc_hd__decap_8
XTAP_TAPCELL_ROW_9_116 VGND VPWR sky130_fd_sc_hd__tapvpwrvgnd_1
XTAP_TAPCELL_ROW_23_173 VGND VPWR sky130_fd_sc_hd__tapvpwrvgnd_1
X_293_ _115_ _149_ _150_ VGND VGND VPWR VPWR _151_ sky130_fd_sc_hd__and3_1
X_362_ _181_ VGND VGND VPWR VPWR _051_ sky130_fd_sc_hd__inv_2
XFILLER_0_2_109 VPWR VGND VPWR VGND sky130_ef_sc_hd__decap_12
XFILLER_0_3_29 VPWR VGND VPWR VGND sky130_ef_sc_hd__decap_12
XFILLER_0_34_29 VPWR VGND VPWR VGND sky130_ef_sc_hd__decap_12
XFILLER_0_20_229 VGND VGND VPWR VPWR sky130_fd_sc_hd__fill_2
X_276_ _137_ VGND VGND VPWR VPWR _005_ sky130_fd_sc_hd__buf_1
X_345_ _179_ VGND VGND VPWR VPWR _036_ sky130_fd_sc_hd__inv_2
XPHY_EDGE_ROW_21_Right_21 VGND VGND VPWR VPWR sky130_fd_sc_hd__decap_3
XPHY_EDGE_ROW_12_Right_12 VGND VGND VPWR VPWR sky130_fd_sc_hd__decap_3
XFILLER_0_4_83 VGND VGND VPWR VPWR sky130_fd_sc_hd__fill_1
XFILLER_0_6_234 VGND VGND VPWR VPWR sky130_fd_sc_hd__decap_3
XFILLER_0_36_181 VPWR VGND VPWR VGND sky130_ef_sc_hd__decap_12
XTAP_TAPCELL_ROW_31_205 VGND VPWR sky130_fd_sc_hd__tapvpwrvgnd_1
XPHY_EDGE_ROW_30_Right_30 VGND VGND VPWR VPWR sky130_fd_sc_hd__decap_3
X_259_ _064_ _065_ _123_ VGND VGND VPWR VPWR _124_ sky130_fd_sc_hd__and3_1
XFILLER_0_9_39 VPWR VGND VPWR VGND sky130_ef_sc_hd__decap_12
X_328_ count\[0\] VGND VGND VPWR VPWR _176_ sky130_fd_sc_hd__inv_2
XFILLER_0_27_181 VPWR VGND VPWR VGND sky130_ef_sc_hd__decap_12
XFILLER_0_10_97 VGND VGND VPWR VPWR sky130_fd_sc_hd__decap_8
XFILLER_0_24_184 VGND VGND VPWR VPWR sky130_fd_sc_hd__decap_3
XFILLER_0_30_165 VPWR VGND VPWR VGND sky130_ef_sc_hd__decap_12
XFILLER_0_27_3 VPWR VGND VPWR VGND sky130_ef_sc_hd__decap_12
XFILLER_0_21_165 VGND VGND VPWR VPWR sky130_fd_sc_hd__decap_3
XFILLER_0_16_85 VPWR VGND VPWR VGND sky130_ef_sc_hd__decap_12
XFILLER_0_16_74 VGND VGND VPWR VPWR sky130_fd_sc_hd__decap_8
XANTENNA_6 _108_ VGND VGND VPWR VPWR sky130_fd_sc_hd__diode_2
XFILLER_0_6_29 VPWR VGND VPWR VGND sky130_ef_sc_hd__decap_12
XFILLER_0_12_165 VGND VGND VPWR VPWR sky130_fd_sc_hd__decap_8
XFILLER_0_12_121 VPWR VGND VPWR VGND sky130_ef_sc_hd__decap_12
XPHY_EDGE_ROW_6_Right_6 VGND VGND VPWR VPWR sky130_fd_sc_hd__decap_3
XFILLER_0_8_137 VGND VGND VPWR VPWR sky130_fd_sc_hd__decap_3
XTAP_TAPCELL_ROW_26_182 VGND VPWR sky130_fd_sc_hd__tapvpwrvgnd_1
Xoutput8 net8 VGND VGND VPWR VPWR seg[6] sky130_fd_sc_hd__buf_1
XFILLER_0_7_181 VPWR VGND VPWR VGND sky130_ef_sc_hd__decap_12
XFILLER_0_32_238 VGND VGND VPWR VPWR sky130_fd_sc_hd__decap_3
XFILLER_0_27_84 VPWR VGND VPWR VGND sky130_ef_sc_hd__decap_12
X_361_ _181_ VGND VGND VPWR VPWR _050_ sky130_fd_sc_hd__inv_2
X_292_ _088_ _142_ VGND VGND VPWR VPWR _150_ sky130_fd_sc_hd__nand2_1
XTAP_TAPCELL_ROW_9_117 VGND VPWR sky130_fd_sc_hd__tapvpwrvgnd_1
XFILLER_0_3_19 VGND VGND VPWR VPWR sky130_fd_sc_hd__fill_1
XTAP_TAPCELL_ROW_3_90 VGND VPWR sky130_fd_sc_hd__tapvpwrvgnd_1
X_344_ _179_ VGND VGND VPWR VPWR _035_ sky130_fd_sc_hd__inv_2
X_275_ _115_ _135_ _136_ VGND VGND VPWR VPWR _137_ sky130_fd_sc_hd__and3_1
XTAP_TAPCELL_ROW_11_122 VGND VPWR sky130_fd_sc_hd__tapvpwrvgnd_1
XTAP_TAPCELL_ROW_34_214 VGND VPWR sky130_fd_sc_hd__tapvpwrvgnd_1
XFILLER_0_24_85 VPWR VGND VPWR VGND sky130_ef_sc_hd__decap_12
XFILLER_0_24_41 VPWR VGND VPWR VGND sky130_ef_sc_hd__decap_12
XFILLER_0_6_202 VPWR VGND VPWR VGND sky130_ef_sc_hd__decap_12
XFILLER_0_28_138 VGND VGND VPWR VPWR sky130_fd_sc_hd__fill_2
XFILLER_0_36_193 VGND VGND VPWR VPWR sky130_fd_sc_hd__decap_3
XFILLER_0_35_84 VPWR VGND VPWR VGND sky130_ef_sc_hd__decap_12
X_258_ one_second_counter\[9\] one_second_counter\[8\] one_second_counter\[11\] one_second_counter\[10\]
+ VGND VGND VPWR VPWR _123_ sky130_fd_sc_hd__and4_1
XFILLER_0_19_41 VPWR VGND VPWR VGND sky130_ef_sc_hd__decap_12
X_327_ _077_ _175_ VGND VGND VPWR VPWR net3 sky130_fd_sc_hd__nor2_1
XFILLER_0_10_76 VGND VGND VPWR VPWR sky130_fd_sc_hd__decap_3
XTAP_TAPCELL_ROW_0_80 VGND VPWR sky130_fd_sc_hd__tapvpwrvgnd_1
X_189_ one_second_counter\[17\] one_second_counter\[25\] one_second_counter\[16\]
+ VGND VGND VPWR VPWR _071_ sky130_fd_sc_hd__nor3b_1
XFILLER_0_27_193 VGND VGND VPWR VPWR sky130_fd_sc_hd__fill_2
XFILLER_0_33_185 VGND VGND VPWR VPWR sky130_fd_sc_hd__fill_1
XPHY_EDGE_ROW_28_Left_65 VGND VGND VPWR VPWR sky130_fd_sc_hd__decap_3
XFILLER_0_24_152 VPWR VGND VPWR VGND sky130_ef_sc_hd__decap_12
XFILLER_0_21_53 VGND VGND VPWR VPWR sky130_fd_sc_hd__decap_3
XPHY_EDGE_ROW_12_Left_49 VGND VGND VPWR VPWR sky130_fd_sc_hd__decap_3
XFILLER_0_30_177 VPWR VGND VPWR VGND sky130_ef_sc_hd__decap_12
XFILLER_0_15_163 VGND VGND VPWR VPWR sky130_fd_sc_hd__fill_2
XANTENNA_7 _113_ VGND VGND VPWR VPWR sky130_fd_sc_hd__diode_2
XFILLER_0_32_85 VPWR VGND VPWR VGND sky130_ef_sc_hd__decap_12
XFILLER_0_32_41 VPWR VGND VPWR VGND sky130_ef_sc_hd__decap_12
XFILLER_0_29_233 VGND VGND VPWR VPWR sky130_fd_sc_hd__fill_2
XFILLER_0_16_97 VPWR VGND VPWR VGND sky130_ef_sc_hd__decap_12
XFILLER_0_12_133 VGND VGND VPWR VPWR sky130_fd_sc_hd__decap_6
XFILLER_0_35_225 VGND VGND VPWR VPWR sky130_fd_sc_hd__fill_2
XFILLER_0_9_3 VPWR VGND VPWR VGND sky130_ef_sc_hd__decap_12
XFILLER_0_26_236 VGND VGND VPWR VPWR sky130_fd_sc_hd__decap_8
XFILLER_0_27_96 VGND VGND VPWR VPWR sky130_fd_sc_hd__decap_6
XTAP_TAPCELL_ROW_26_183 VGND VPWR sky130_fd_sc_hd__tapvpwrvgnd_1
XFILLER_0_32_217 VGND VGND VPWR VPWR sky130_fd_sc_hd__decap_3
X_360_ _181_ VGND VGND VPWR VPWR _049_ sky130_fd_sc_hd__inv_2
XFILLER_0_17_225 VGND VGND VPWR VPWR sky130_fd_sc_hd__decap_8
XPHY_EDGE_ROW_15_Left_52 VGND VGND VPWR VPWR sky130_fd_sc_hd__decap_3
X_291_ one_second_counter\[17\] one_second_counter\[16\] _140_ one_second_counter\[18\]
+ VGND VGND VPWR VPWR _149_ sky130_fd_sc_hd__a31o_1
XFILLER_0_4_141 VPWR VGND VPWR VGND sky130_ef_sc_hd__decap_12
XFILLER_0_4_185 VGND VGND VPWR VPWR sky130_fd_sc_hd__fill_1
XFILLER_0_23_228 VPWR VGND VPWR VGND sky130_ef_sc_hd__decap_12
XFILLER_0_13_87 VPWR VGND VPWR VGND sky130_ef_sc_hd__decap_12
XFILLER_0_13_43 VPWR VGND VPWR VGND sky130_ef_sc_hd__decap_12
XFILLER_0_20_209 VPWR VGND VPWR VGND sky130_ef_sc_hd__decap_12
XFILLER_0_1_111 VGND VGND VPWR VPWR sky130_fd_sc_hd__fill_1
XPHY_EDGE_ROW_0_Left_37 VGND VGND VPWR VPWR sky130_fd_sc_hd__decap_3
XTAP_TAPCELL_ROW_3_91 VGND VPWR sky130_fd_sc_hd__tapvpwrvgnd_1
XFILLER_0_9_200 VPWR VGND VPWR VGND sky130_ef_sc_hd__decap_12
XFILLER_0_9_233 VGND VGND VPWR VPWR sky130_fd_sc_hd__decap_8
X_343_ _179_ VGND VGND VPWR VPWR _034_ sky130_fd_sc_hd__inv_2
XTAP_TAPCELL_ROW_11_123 VGND VPWR sky130_fd_sc_hd__tapvpwrvgnd_1
X_274_ one_second_counter\[13\] _130_ one_second_counter\[14\] VGND VGND VPWR VPWR
+ _136_ sky130_fd_sc_hd__a21o_1
XTAP_TAPCELL_ROW_34_215 VGND VPWR sky130_fd_sc_hd__tapvpwrvgnd_1
XFILLER_0_24_97 VGND VGND VPWR VPWR sky130_fd_sc_hd__decap_4
XFILLER_0_24_53 VGND VGND VPWR VPWR sky130_fd_sc_hd__decap_8
XFILLER_0_4_41 VPWR VGND VPWR VGND sky130_ef_sc_hd__decap_12
XFILLER_0_4_85 VPWR VGND VPWR VGND sky130_ef_sc_hd__decap_12
XFILLER_0_6_214 VPWR VGND VPWR VGND sky130_ef_sc_hd__decap_12
XFILLER_0_35_96 VGND VGND VPWR VPWR sky130_fd_sc_hd__decap_4
XFILLER_0_28_106 VPWR VGND VPWR VGND sky130_ef_sc_hd__decap_12
X_326_ _174_ VGND VGND VPWR VPWR _175_ sky130_fd_sc_hd__inv_2
X_257_ one_second_counter\[11\] _119_ VGND VGND VPWR VPWR _122_ sky130_fd_sc_hd__or2b_1
XFILLER_0_19_75 VGND VGND VPWR VPWR sky130_fd_sc_hd__fill_2
XFILLER_0_19_53 VGND VGND VPWR VPWR sky130_fd_sc_hd__decap_3
XTAP_TAPCELL_ROW_0_81 VGND VPWR sky130_fd_sc_hd__tapvpwrvgnd_1
X_188_ one_second_counter\[19\] one_second_counter\[18\] VGND VGND VPWR VPWR _070_
+ sky130_fd_sc_hd__and2b_1
XFILLER_0_34_109 VPWR VGND VPWR VGND sky130_ef_sc_hd__decap_12
XFILLER_0_33_197 VPWR VGND VPWR VGND sky130_ef_sc_hd__decap_12
X_309_ one_second_counter\[22\] _161_ VGND VGND VPWR VPWR _163_ sky130_fd_sc_hd__nand2_1
XFILLER_0_16_109 VGND VGND VPWR VPWR sky130_fd_sc_hd__decap_8
XPHY_EDGE_ROW_3_Left_40 VGND VGND VPWR VPWR sky130_fd_sc_hd__decap_3
XFILLER_0_24_197 VGND VGND VPWR VPWR sky130_fd_sc_hd__decap_4
XFILLER_0_24_164 VPWR VGND VPWR VGND sky130_ef_sc_hd__decap_12
XFILLER_0_15_131 VPWR VGND VPWR VGND sky130_ef_sc_hd__decap_12
XFILLER_0_30_189 VGND VGND VPWR VPWR sky130_fd_sc_hd__decap_6
XFILLER_0_21_178 VGND VGND VPWR VPWR sky130_fd_sc_hd__fill_1
XFILLER_0_21_123 VPWR VGND VPWR VGND sky130_ef_sc_hd__decap_12
XFILLER_0_21_101 VGND VGND VPWR VPWR sky130_fd_sc_hd__decap_8
XANTENNA_8 _122_ VGND VGND VPWR VPWR sky130_fd_sc_hd__diode_2
XFILLER_0_32_97 VGND VGND VPWR VPWR sky130_fd_sc_hd__decap_6
XFILLER_0_32_53 VPWR VGND VPWR VGND sky130_ef_sc_hd__decap_12
XFILLER_0_32_3 VPWR VGND VPWR VGND sky130_ef_sc_hd__decap_12
XTAP_TAPCELL_ROW_26_184 VGND VPWR sky130_fd_sc_hd__tapvpwrvgnd_1
XFILLER_0_27_75 VGND VGND VPWR VPWR sky130_fd_sc_hd__fill_1
XFILLER_0_27_20 VPWR VGND VPWR VGND sky130_ef_sc_hd__decap_12
XFILLER_0_4_153 VPWR VGND VPWR VGND sky130_ef_sc_hd__decap_12
XFILLER_0_4_197 VPWR VGND VPWR VGND sky130_ef_sc_hd__decap_12
X_290_ _148_ VGND VGND VPWR VPWR _008_ sky130_fd_sc_hd__clkbuf_1
XFILLER_0_13_55 VGND VGND VPWR VPWR sky130_fd_sc_hd__fill_1
XFILLER_0_13_99 VGND VGND VPWR VPWR sky130_fd_sc_hd__decap_4
XTAP_TAPCELL_ROW_3_92 VGND VPWR sky130_fd_sc_hd__tapvpwrvgnd_1
XFILLER_0_9_212 VPWR VGND VPWR VGND sky130_ef_sc_hd__decap_12
X_342_ _179_ VGND VGND VPWR VPWR _033_ sky130_fd_sc_hd__inv_2
XTAP_TAPCELL_ROW_11_124 VGND VPWR sky130_fd_sc_hd__tapvpwrvgnd_1
XTAP_TAPCELL_ROW_5_100 VGND VPWR sky130_fd_sc_hd__tapvpwrvgnd_1
X_273_ _134_ VGND VGND VPWR VPWR _135_ sky130_fd_sc_hd__inv_2
XTAP_TAPCELL_ROW_34_216 VGND VPWR sky130_fd_sc_hd__tapvpwrvgnd_1
XFILLER_0_6_226 VGND VGND VPWR VPWR sky130_fd_sc_hd__decap_8
XFILLER_0_4_53 VPWR VGND VPWR VGND sky130_ef_sc_hd__decap_12
XFILLER_0_28_118 VPWR VGND VPWR VGND sky130_ef_sc_hd__decap_12
X_256_ _121_ VGND VGND VPWR VPWR _001_ sky130_fd_sc_hd__clkbuf_1
X_187_ one_second_counter\[23\] one_second_counter\[22\] one_second_counter\[24\]
+ VGND VGND VPWR VPWR _069_ sky130_fd_sc_hd__and3_1
XFILLER_0_10_56 VPWR VGND VPWR VGND sky130_ef_sc_hd__decap_12
XFILLER_0_3_218 VGND VGND VPWR VPWR sky130_fd_sc_hd__decap_6
XFILLER_0_3_229 VPWR VGND VPWR VGND sky130_ef_sc_hd__decap_12
X_325_ count\[4\] count\[3\] count\[2\] VGND VGND VPWR VPWR _174_ sky130_fd_sc_hd__or3_2
XFILLER_0_33_143 VGND VGND VPWR VPWR sky130_fd_sc_hd__fill_1
Xclkload0 clknet_2_0__leaf_clk VGND VGND VPWR VPWR clkload0/Y sky130_fd_sc_hd__clkinv_2
X_308_ one_second_counter\[22\] _161_ VGND VGND VPWR VPWR _162_ sky130_fd_sc_hd__or2_1
XFILLER_0_24_176 VGND VGND VPWR VPWR sky130_fd_sc_hd__decap_8
X_239_ _091_ _107_ _108_ VGND VGND VPWR VPWR _109_ sky130_fd_sc_hd__and3_1
XFILLER_0_1_21 VPWR VGND VPWR VGND sky130_ef_sc_hd__decap_12
XFILLER_0_15_143 VPWR VGND VPWR VGND sky130_ef_sc_hd__decap_12
XFILLER_0_32_65 VPWR VGND VPWR VGND sky130_ef_sc_hd__decap_12
XFILLER_0_21_135 VGND VGND VPWR VPWR sky130_fd_sc_hd__decap_3
XFILLER_0_21_113 VGND VGND VPWR VPWR sky130_fd_sc_hd__decap_4
XANTENNA_9 _170_ VGND VGND VPWR VPWR sky130_fd_sc_hd__diode_2
XFILLER_0_25_3 VGND VGND VPWR VPWR sky130_fd_sc_hd__decap_8
XPHY_EDGE_ROW_28_Right_28 VGND VGND VPWR VPWR sky130_fd_sc_hd__decap_3
XTAP_TAPCELL_ROW_26_185 VGND VPWR sky130_fd_sc_hd__tapvpwrvgnd_1
XPHY_EDGE_ROW_19_Right_19 VGND VGND VPWR VPWR sky130_fd_sc_hd__decap_3
XFILLER_0_11_190 VPWR VGND VPWR VGND sky130_ef_sc_hd__decap_12
XFILLER_0_27_32 VPWR VGND VPWR VGND sky130_ef_sc_hd__decap_12
XFILLER_0_11_9 VGND VGND VPWR VPWR sky130_fd_sc_hd__fill_1
XFILLER_0_4_121 VGND VGND VPWR VPWR sky130_fd_sc_hd__fill_2
XFILLER_0_4_165 VPWR VGND VPWR VGND sky130_ef_sc_hd__decap_12
XFILLER_0_7_31 VPWR VGND VPWR VGND sky130_ef_sc_hd__decap_12
XFILLER_0_22_241 VGND VGND VPWR VPWR sky130_fd_sc_hd__decap_3
XFILLER_0_22_230 VGND VGND VPWR VPWR sky130_fd_sc_hd__fill_1
XFILLER_0_13_23 VGND VGND VPWR VPWR sky130_fd_sc_hd__fill_1
XFILLER_0_1_113 VGND VGND VPWR VPWR sky130_fd_sc_hd__decap_6
XTAP_TAPCELL_ROW_3_93 VGND VPWR sky130_fd_sc_hd__tapvpwrvgnd_1
X_272_ one_second_counter\[14\] one_second_counter\[13\] _130_ VGND VGND VPWR VPWR
+ _134_ sky130_fd_sc_hd__and3_1
XTAP_TAPCELL_ROW_20_158 VGND VPWR sky130_fd_sc_hd__tapvpwrvgnd_1
X_341_ _179_ VGND VGND VPWR VPWR _032_ sky130_fd_sc_hd__inv_2
XTAP_TAPCELL_ROW_5_101 VGND VPWR sky130_fd_sc_hd__tapvpwrvgnd_1
XTAP_TAPCELL_ROW_34_217 VGND VPWR sky130_fd_sc_hd__tapvpwrvgnd_1
XTAP_TAPCELL_ROW_11_125 VGND VPWR sky130_fd_sc_hd__tapvpwrvgnd_1
XFILLER_0_4_21 VGND VGND VPWR VPWR sky130_fd_sc_hd__decap_6
XFILLER_0_4_65 VPWR VGND VPWR VGND sky130_ef_sc_hd__decap_12
XFILLER_0_36_141 VPWR VGND VPWR VGND sky130_ef_sc_hd__decap_12
XFILLER_0_36_130 VGND VGND VPWR VPWR sky130_fd_sc_hd__decap_8
X_255_ _115_ _119_ _120_ VGND VGND VPWR VPWR _121_ sky130_fd_sc_hd__and3_1
X_186_ one_second_counter\[21\] one_second_counter\[20\] VGND VGND VPWR VPWR _068_
+ sky130_fd_sc_hd__and2_2
XFILLER_0_10_68 VGND VGND VPWR VPWR sky130_fd_sc_hd__decap_8
X_324_ one_second_counter\[26\] _173_ _091_ VGND VGND VPWR VPWR _018_ sky130_fd_sc_hd__o21a_1
XFILLER_0_2_230 VGND VGND VPWR VPWR sky130_fd_sc_hd__fill_2
XFILLER_0_33_111 VGND VGND VPWR VPWR sky130_fd_sc_hd__fill_1
Xclkload1 clknet_2_1__leaf_clk VGND VGND VPWR VPWR clkload1/Y sky130_fd_sc_hd__clkinv_2
XFILLER_0_18_141 VGND VGND VPWR VPWR sky130_fd_sc_hd__fill_2
X_238_ one_second_counter\[6\] _104_ VGND VGND VPWR VPWR _108_ sky130_fd_sc_hd__or2_1
XFILLER_0_24_133 VGND VGND VPWR VPWR sky130_fd_sc_hd__decap_6
XFILLER_0_21_45 VGND VGND VPWR VPWR sky130_fd_sc_hd__decap_8
X_307_ _068_ _140_ _153_ VGND VGND VPWR VPWR _161_ sky130_fd_sc_hd__and3_1
XFILLER_0_15_155 VGND VGND VPWR VPWR sky130_fd_sc_hd__decap_8
XFILLER_0_32_77 VGND VGND VPWR VPWR sky130_fd_sc_hd__decap_6
XFILLER_0_29_225 VGND VGND VPWR VPWR sky130_fd_sc_hd__decap_8
XTAP_TAPCELL_ROW_29_194 VGND VPWR sky130_fd_sc_hd__tapvpwrvgnd_1
XFILLER_0_21_169 VGND VGND VPWR VPWR sky130_fd_sc_hd__fill_2
XFILLER_0_20_191 VGND VGND VPWR VPWR sky130_fd_sc_hd__decap_4
XFILLER_0_18_3 VPWR VGND VPWR VGND sky130_ef_sc_hd__decap_12
XFILLER_0_7_163 VGND VGND VPWR VPWR sky130_fd_sc_hd__decap_4
XFILLER_0_7_196 VPWR VGND VPWR VGND sky130_ef_sc_hd__decap_12
XFILLER_0_26_228 VGND VGND VPWR VPWR sky130_fd_sc_hd__decap_4
XFILLER_0_32_209 VGND VGND VPWR VPWR sky130_fd_sc_hd__decap_3
XFILLER_0_27_44 VPWR VGND VPWR VGND sky130_ef_sc_hd__decap_12
XFILLER_0_4_177 VGND VGND VPWR VPWR sky130_fd_sc_hd__decap_8
XFILLER_0_7_43 VPWR VGND VPWR VGND sky130_ef_sc_hd__decap_12
XFILLER_0_7_3 VPWR VGND VPWR VGND sky130_ef_sc_hd__decap_12
XTAP_TAPCELL_ROW_8_110 VGND VPWR sky130_fd_sc_hd__tapvpwrvgnd_1
XFILLER_0_13_57 VPWR VGND VPWR VGND sky130_ef_sc_hd__decap_12
XTAP_TAPCELL_ROW_14_134 VGND VPWR sky130_fd_sc_hd__tapvpwrvgnd_1
XTAP_TAPCELL_ROW_20_159 VGND VPWR sky130_fd_sc_hd__tapvpwrvgnd_1
XPHY_EDGE_ROW_19_Left_56 VGND VGND VPWR VPWR sky130_fd_sc_hd__decap_3
XFILLER_0_9_225 VGND VGND VPWR VPWR sky130_fd_sc_hd__fill_2
XFILLER_0_24_78 VGND VGND VPWR VPWR sky130_fd_sc_hd__decap_6
XFILLER_0_24_67 VGND VGND VPWR VPWR sky130_fd_sc_hd__decap_4
X_340_ _179_ VGND VGND VPWR VPWR _031_ sky130_fd_sc_hd__inv_2
X_271_ _133_ VGND VGND VPWR VPWR _004_ sky130_fd_sc_hd__buf_1
XFILLER_0_4_11 VGND VGND VPWR VPWR sky130_fd_sc_hd__decap_3
XFILLER_0_4_77 VGND VGND VPWR VPWR sky130_fd_sc_hd__decap_6
XFILLER_0_6_239 VGND VGND VPWR VPWR sky130_fd_sc_hd__fill_2
XFILLER_0_36_153 VPWR VGND VPWR VGND sky130_ef_sc_hd__decap_12
X_254_ one_second_counter\[9\] one_second_counter\[8\] _067_ one_second_counter\[10\]
+ VGND VGND VPWR VPWR _120_ sky130_fd_sc_hd__a31o_1
X_185_ _066_ VGND VGND VPWR VPWR _067_ sky130_fd_sc_hd__clkbuf_4
X_323_ one_second_counter\[25\] _169_ VGND VGND VPWR VPWR _173_ sky130_fd_sc_hd__and2_1
XFILLER_0_19_67 VGND VGND VPWR VPWR sky130_fd_sc_hd__decap_8
XFILLER_0_19_23 VGND VGND VPWR VPWR sky130_fd_sc_hd__fill_1
XFILLER_0_33_167 VGND VGND VPWR VPWR sky130_fd_sc_hd__fill_1
Xclkload2 clknet_2_3__leaf_clk VGND VGND VPWR VPWR clkload2/Y sky130_fd_sc_hd__clkinv_1
XFILLER_0_18_197 VGND VGND VPWR VPWR sky130_fd_sc_hd__decap_8
X_237_ one_second_counter\[6\] _104_ VGND VGND VPWR VPWR _107_ sky130_fd_sc_hd__nand2_1
X_306_ _160_ VGND VGND VPWR VPWR _013_ sky130_fd_sc_hd__buf_1
XFILLER_0_24_101 VGND VGND VPWR VPWR sky130_fd_sc_hd__fill_1
XFILLER_0_21_57 VPWR VGND VPWR VGND sky130_ef_sc_hd__decap_12
XFILLER_0_21_24 VPWR VGND VPWR VGND sky130_ef_sc_hd__decap_12
XTAP_TAPCELL_ROW_29_195 VGND VPWR sky130_fd_sc_hd__tapvpwrvgnd_1
XPHY_EDGE_ROW_7_Left_44 VGND VGND VPWR VPWR sky130_fd_sc_hd__decap_3
XPHY_EDGE_ROW_1_Right_1 VGND VGND VPWR VPWR sky130_fd_sc_hd__decap_3
XFILLER_0_7_131 VGND VGND VPWR VPWR sky130_fd_sc_hd__decap_6
XFILLER_0_31_243 VGND VGND VPWR VPWR sky130_fd_sc_hd__fill_1
XFILLER_0_30_3 VPWR VGND VPWR VGND sky130_ef_sc_hd__decap_12
XFILLER_0_7_55 VGND VGND VPWR VPWR sky130_fd_sc_hd__fill_1
XTAP_TAPCELL_ROW_8_111 VGND VPWR sky130_fd_sc_hd__tapvpwrvgnd_1
XTAP_TAPCELL_ROW_14_135 VGND VPWR sky130_fd_sc_hd__tapvpwrvgnd_1
XFILLER_0_13_69 VPWR VGND VPWR VGND sky130_ef_sc_hd__decap_12
XFILLER_0_1_126 VPWR VGND VPWR VGND sky130_ef_sc_hd__decap_12
XFILLER_0_13_243 VGND VGND VPWR VPWR sky130_fd_sc_hd__fill_1
XFILLER_0_13_232 VGND VGND VPWR VPWR sky130_fd_sc_hd__fill_2
XFILLER_0_13_221 VGND VGND VPWR VPWR sky130_fd_sc_hd__decap_3
X_270_ _115_ _131_ _132_ VGND VGND VPWR VPWR _133_ sky130_fd_sc_hd__and3_1
XPHY_EDGE_ROW_36_Left_73 VGND VGND VPWR VPWR sky130_fd_sc_hd__decap_3
XPHY_EDGE_ROW_20_Left_57 VGND VGND VPWR VPWR sky130_fd_sc_hd__decap_3
X_399_ clknet_2_3__leaf_clk _016_ _056_ VGND VGND VPWR VPWR one_second_counter\[24\]
+ sky130_fd_sc_hd__dfrtp_1
X_322_ _172_ VGND VGND VPWR VPWR _017_ sky130_fd_sc_hd__buf_1
XFILLER_0_36_165 VGND VGND VPWR VPWR sky130_fd_sc_hd__decap_3
XFILLER_0_36_121 VGND VGND VPWR VPWR sky130_fd_sc_hd__decap_3
XTAP_TAPCELL_ROW_30_200 VGND VPWR sky130_fd_sc_hd__tapvpwrvgnd_1
X_184_ _064_ _065_ VGND VGND VPWR VPWR _066_ sky130_fd_sc_hd__and2_1
XFILLER_0_27_121 VGND VGND VPWR VPWR sky130_fd_sc_hd__fill_2
X_253_ one_second_counter\[9\] one_second_counter\[8\] one_second_counter\[10\] _067_
+ VGND VGND VPWR VPWR _119_ sky130_fd_sc_hd__nand4_2
XFILLER_0_10_15 VPWR VGND VPWR VGND sky130_ef_sc_hd__decap_12
XTAP_TAPCELL_ROW_0_74 VGND VPWR sky130_fd_sc_hd__tapvpwrvgnd_1
XFILLER_0_33_113 VPWR VGND VPWR VGND sky130_ef_sc_hd__decap_12
XFILLER_0_18_132 VGND VGND VPWR VPWR sky130_fd_sc_hd__decap_8
XFILLER_0_32_190 VGND VGND VPWR VPWR sky130_fd_sc_hd__decap_6
XFILLER_0_21_36 VGND VGND VPWR VPWR sky130_fd_sc_hd__decap_3
X_236_ _106_ VGND VGND VPWR VPWR _022_ sky130_fd_sc_hd__clkbuf_1
X_305_ _115_ _158_ _159_ VGND VGND VPWR VPWR _160_ sky130_fd_sc_hd__and3_1
XPHY_EDGE_ROW_23_Left_60 VGND VGND VPWR VPWR sky130_fd_sc_hd__decap_3
XFILLER_0_15_124 VGND VGND VPWR VPWR sky130_fd_sc_hd__decap_3
XFILLER_0_1_57 VPWR VGND VPWR VGND sky130_ef_sc_hd__decap_12
XTAP_TAPCELL_ROW_29_196 VGND VPWR sky130_fd_sc_hd__tapvpwrvgnd_1
X_219_ one_second_counter\[1\] one_second_counter\[0\] VGND VGND VPWR VPWR _094_ sky130_fd_sc_hd__or2_1