*SPEF "ieee 1481-1999"
*DESIGN "aludesign"
*DATE "17:18:18 Thursday May 01, 2025"
*VENDOR "The OpenROAD Project"
*PROGRAM "OpenROAD"
*VERSION "b16bda7e82721d10566ff7e2b68f1ff0be9f9e38"
*DESIGN_FLOW "NAME_SCOPE LOCAL" "PIN_CAP NONE"
*DIVIDER /
*DELIMITER :
*BUS_DELIMITER []
*T_UNIT 1 NS
*C_UNIT 1 PF
*R_UNIT 1 OHM
*L_UNIT 1 HENRY

*NAME_MAP
*1 A[0]
*2 A[1]
*3 A[2]
*4 A[3]
*5 A[4]
*6 A[5]
*7 A[6]
*8 A[7]
*9 B[0]
*10 B[1]
*11 B[2]
*12 B[3]
*13 B[4]
*14 B[5]
*15 B[6]
*16 B[7]
*19 opcode[0]
*20 opcode[1]
*21 opcode[2]
*22 out[0]
*23 out[1]
*24 out[2]
*25 out[3]
*26 out[4]
*27 out[5]
*28 out[6]
*29 out[7]
*30 _000_
*31 _001_
*32 _002_
*33 _003_
*34 _004_
*35 _005_
*36 _006_
*37 _007_
*38 _008_
*39 _009_
*40 _010_
*41 _011_
*42 _012_
*43 _013_
*44 _014_
*45 _015_
*46 _016_
*47 _017_
*48 _018_
*49 _019_
*50 _020_
*51 _021_
*52 _022_
*53 _023_
*54 _024_
*55 _025_
*56 _026_
*57 _027_
*58 _028_
*59 _029_
*60 _030_
*61 _031_
*62 _032_
*63 _033_
*64 _034_
*65 _035_
*66 _036_
*67 _037_
*68 _038_
*69 _039_
*70 _040_
*71 _041_
*72 _042_
*73 _043_
*74 _044_
*75 _045_
*76 _046_
*77 _047_
*78 _048_
*79 _049_
*80 _050_
*81 _051_
*82 _052_
*83 _053_
*84 _054_
*85 _055_
*86 _056_
*87 _057_
*88 _058_
*89 _059_
*90 _060_
*91 _061_
*92 _062_
*93 _063_
*94 _064_
*95 _065_
*96 _066_
*97 _067_
*98 _068_
*99 _069_
*100 _070_
*101 _071_
*102 _072_
*103 _073_
*104 _074_
*105 _075_
*106 _076_
*107 _077_
*108 _078_
*109 _079_
*110 _080_
*111 _081_
*112 _082_
*113 _083_
*114 _084_
*115 _085_
*116 _086_
*117 _087_
*118 _088_
*119 _089_
*120 _090_
*121 _091_
*122 _092_
*123 _093_
*124 _094_
*125 _095_
*126 _096_
*127 _097_
*128 _098_
*129 _099_
*130 _100_
*131 _101_
*132 _102_
*133 _103_
*134 _104_
*135 _105_
*136 _106_
*137 _107_
*138 _108_
*139 _109_
*140 _110_
*141 _111_
*142 _112_
*143 _113_
*144 _114_
*145 _115_
*146 _116_
*147 _117_
*148 _118_
*149 _119_
*150 _120_
*151 _121_
*152 _122_
*153 _123_
*154 _124_
*155 _125_
*156 _126_
*157 _127_
*158 _128_
*159 _129_
*160 _130_
*161 _131_
*162 _132_
*163 _133_
*164 _134_
*165 _135_
*166 _136_
*167 _137_
*168 _138_
*169 _139_
*170 _140_
*171 _141_
*172 _142_
*173 _143_
*174 _144_
*175 _145_
*176 _146_
*177 _147_
*178 _148_
*179 _149_
*180 _150_
*181 _151_
*182 _152_
*183 _153_
*184 _154_
*185 _155_
*186 _156_
*187 _157_
*188 _158_
*189 _159_
*190 _160_
*191 _161_
*192 _162_
*193 _163_
*194 _164_
*195 _165_
*196 _166_
*197 _167_
*198 _168_
*199 _169_
*200 _170_
*201 _171_
*202 _172_
*203 _173_
*204 _174_
*205 _175_
*206 _176_
*207 _177_
*208 _178_
*209 _179_
*210 _180_
*211 _181_
*212 _182_
*213 _183_
*214 _184_
*215 _185_
*216 _186_
*217 _187_
*218 _188_
*219 _189_
*220 _190_
*221 _191_
*222 _192_
*223 _193_
*224 _194_
*225 _195_
*226 _196_
*227 _197_
*228 _198_
*229 _199_
*230 _200_
*231 _201_
*232 _202_
*233 _203_
*234 _204_
*235 _205_
*236 _206_
*237 _207_
*238 _208_
*239 _209_
*240 _210_
*241 _211_
*242 _212_
*243 _213_
*244 _214_
*245 _215_
*246 _216_
*247 _217_
*248 _218_
*249 _219_
*250 _220_
*251 _221_
*252 _222_
*253 _223_
*254 _224_
*255 _225_
*256 _226_
*257 _227_
*258 _228_
*259 _229_
*260 _230_
*261 _231_
*262 _232_
*263 _233_
*264 _234_
*265 _235_
*266 _236_
*267 _237_
*268 _238_
*269 _239_
*270 _240_
*271 _241_
*272 _242_
*273 _243_
*274 _244_
*275 _245_
*276 _246_
*277 _247_
*278 net1
*279 net10
*280 net11
*281 net12
*282 net13
*283 net14
*284 net15
*285 net16
*286 net17
*287 net18
*288 net19
*289 net2
*290 net20
*291 net21
*292 net22
*293 net23
*294 net24
*295 net25
*296 net26
*297 net27
*298 net28
*299 net29
*300 net3
*301 net30
*302 net31
*303 net32
*304 net33
*305 net34
*306 net35
*307 net36
*308 net37
*309 net38
*310 net39
*311 net4
*312 net40
*313 net41
*314 net42
*315 net43
*316 net44
*317 net45
*318 net46
*319 net47
*320 net48
*321 net49
*322 net5
*323 net50
*324 net51
*325 net52
*326 net6
*327 net7
*328 net8
*329 net9
*330 ANTENNA_1
*331 ANTENNA_10
*332 ANTENNA_11
*333 ANTENNA_12
*334 ANTENNA_13
*335 ANTENNA_14
*336 ANTENNA_15
*337 ANTENNA_2
*338 ANTENNA_3
*339 ANTENNA_4
*340 ANTENNA_5
*341 ANTENNA_6
*342 ANTENNA_7
*343 ANTENNA_8
*344 ANTENNA_9
*345 FILLER_0_0_109
*346 FILLER_0_0_113
*347 FILLER_0_0_125
*348 FILLER_0_0_137
*349 FILLER_0_0_15
*350 FILLER_0_0_150
*351 FILLER_0_0_162
*352 FILLER_0_0_169
*353 FILLER_0_0_181
*354 FILLER_0_0_193
*355 FILLER_0_0_197
*356 FILLER_0_0_209
*357 FILLER_0_0_221
*358 FILLER_0_0_225
*359 FILLER_0_0_231
*360 FILLER_0_0_26
*361 FILLER_0_0_29
*362 FILLER_0_0_3
*363 FILLER_0_0_41
*364 FILLER_0_0_53
*365 FILLER_0_0_62
*366 FILLER_0_0_74
*367 FILLER_0_0_82
*368 FILLER_0_0_85
*369 FILLER_0_0_97
*370 FILLER_0_10_101
*371 FILLER_0_10_108
*372 FILLER_0_10_11
*373 FILLER_0_10_117
*374 FILLER_0_10_129
*375 FILLER_0_10_137
*376 FILLER_0_10_141
*377 FILLER_0_10_153
*378 FILLER_0_10_165
*379 FILLER_0_10_177
*380 FILLER_0_10_185
*381 FILLER_0_10_192
*382 FILLER_0_10_197
*383 FILLER_0_10_212
*384 FILLER_0_10_223
*385 FILLER_0_10_231
*386 FILLER_0_10_243
*387 FILLER_0_10_29
*388 FILLER_0_10_3
*389 FILLER_0_10_41
*390 FILLER_0_10_53
*391 FILLER_0_10_65
*392 FILLER_0_10_77
*393 FILLER_0_10_83
*394 FILLER_0_10_89
*395 FILLER_0_11_105
*396 FILLER_0_11_111
*397 FILLER_0_11_113
*398 FILLER_0_11_125
*399 FILLER_0_11_137
*400 FILLER_0_11_149
*401 FILLER_0_11_15
*402 FILLER_0_11_161
*403 FILLER_0_11_167
*404 FILLER_0_11_169
*405 FILLER_0_11_181
*406 FILLER_0_11_221
*407 FILLER_0_11_225
*408 FILLER_0_11_23
*409 FILLER_0_11_237
*410 FILLER_0_11_53
*411 FILLER_0_11_57
*412 FILLER_0_11_69
*413 FILLER_0_11_81
*414 FILLER_0_11_93
*415 FILLER_0_12_109
*416 FILLER_0_12_121
*417 FILLER_0_12_133
*418 FILLER_0_12_139
*419 FILLER_0_12_14
*420 FILLER_0_12_141
*421 FILLER_0_12_153
*422 FILLER_0_12_174
*423 FILLER_0_12_178
*424 FILLER_0_12_187
*425 FILLER_0_12_195
*426 FILLER_0_12_197
*427 FILLER_0_12_209
*428 FILLER_0_12_221
*429 FILLER_0_12_229
*430 FILLER_0_12_241
*431 FILLER_0_12_26
*432 FILLER_0_12_29
*433 FILLER_0_12_3
*434 FILLER_0_12_41
*435 FILLER_0_12_49
*436 FILLER_0_12_67
*437 FILLER_0_12_79
*438 FILLER_0_12_83
*439 FILLER_0_12_85
*440 FILLER_0_12_9
*441 FILLER_0_12_97
*442 FILLER_0_13_104
*443 FILLER_0_13_113
*444 FILLER_0_13_125
*445 FILLER_0_13_137
*446 FILLER_0_13_149
*447 FILLER_0_13_161
*448 FILLER_0_13_167
*449 FILLER_0_13_169
*450 FILLER_0_13_190
*451 FILLER_0_13_202
*452 FILLER_0_13_21
*453 FILLER_0_13_214
*454 FILLER_0_13_223
*455 FILLER_0_13_232
*456 FILLER_0_13_33
*457 FILLER_0_13_40
*458 FILLER_0_13_52
*459 FILLER_0_13_57
*460 FILLER_0_13_71
*461 FILLER_0_13_9
*462 FILLER_0_13_92
*463 FILLER_0_14_103
*464 FILLER_0_14_115
*465 FILLER_0_14_139
*466 FILLER_0_14_14
*467 FILLER_0_14_141
*468 FILLER_0_14_153
*469 FILLER_0_14_165
*470 FILLER_0_14_177
*471 FILLER_0_14_189
*472 FILLER_0_14_195
*473 FILLER_0_14_197
*474 FILLER_0_14_209
*475 FILLER_0_14_217
*476 FILLER_0_14_228
*477 FILLER_0_14_236
*478 FILLER_0_14_26
*479 FILLER_0_14_29
*480 FILLER_0_14_3
*481 FILLER_0_14_41
*482 FILLER_0_14_53
*483 FILLER_0_14_65
*484 FILLER_0_14_92
*485 FILLER_0_15_113
*486 FILLER_0_15_125
*487 FILLER_0_15_137
*488 FILLER_0_15_149
*489 FILLER_0_15_161
*490 FILLER_0_15_167
*491 FILLER_0_15_169
*492 FILLER_0_15_181
*493 FILLER_0_15_193
*494 FILLER_0_15_205
*495 FILLER_0_15_217
*496 FILLER_0_15_223
*497 FILLER_0_15_225
*498 FILLER_0_15_237
*499 FILLER_0_15_243
*500 FILLER_0_15_29
*501 FILLER_0_15_3
*502 FILLER_0_15_41
*503 FILLER_0_15_53
*504 FILLER_0_15_57
*505 FILLER_0_15_61
*506 FILLER_0_15_69
*507 FILLER_0_15_77
*508 FILLER_0_15_89
*509 FILLER_0_16_109
*510 FILLER_0_16_125
*511 FILLER_0_16_139
*512 FILLER_0_16_141
*513 FILLER_0_16_166
*514 FILLER_0_16_170
*515 FILLER_0_16_179
*516 FILLER_0_16_191
*517 FILLER_0_16_195
*518 FILLER_0_16_197
*519 FILLER_0_16_209
*520 FILLER_0_16_21
*521 FILLER_0_16_221
*522 FILLER_0_16_27
*523 FILLER_0_16_29
*524 FILLER_0_16_41
*525 FILLER_0_16_53
*526 FILLER_0_16_65
*527 FILLER_0_16_77
*528 FILLER_0_16_83
*529 FILLER_0_16_85
*530 FILLER_0_16_9
*531 FILLER_0_16_97
*532 FILLER_0_17_10
*533 FILLER_0_17_105
*534 FILLER_0_17_111
*535 FILLER_0_17_113
*536 FILLER_0_17_121
*537 FILLER_0_17_128
*538 FILLER_0_17_140
*539 FILLER_0_17_152
*540 FILLER_0_17_164
*541 FILLER_0_17_189
*542 FILLER_0_17_204
*543 FILLER_0_17_21
*544 FILLER_0_17_218
*545 FILLER_0_17_225
*546 FILLER_0_17_237
*547 FILLER_0_17_243
*548 FILLER_0_17_33
*549 FILLER_0_17_45
*550 FILLER_0_17_53
*551 FILLER_0_17_57
*552 FILLER_0_17_69
*553 FILLER_0_17_81
*554 FILLER_0_17_93
*555 FILLER_0_18_109
*556 FILLER_0_18_134
*557 FILLER_0_18_141
*558 FILLER_0_18_148
*559 FILLER_0_18_165
*560 FILLER_0_18_177
*561 FILLER_0_18_189
*562 FILLER_0_18_19
*563 FILLER_0_18_209
*564 FILLER_0_18_219
*565 FILLER_0_18_27
*566 FILLER_0_18_29
*567 FILLER_0_18_41
*568 FILLER_0_18_49
*569 FILLER_0_18_61
*570 FILLER_0_18_7
*571 FILLER_0_18_73
*572 FILLER_0_18_81
*573 FILLER_0_18_85
*574 FILLER_0_18_97
*575 FILLER_0_19_104
*576 FILLER_0_19_121
*577 FILLER_0_19_133
*578 FILLER_0_19_145
*579 FILLER_0_19_153
*580 FILLER_0_19_165
*581 FILLER_0_19_169
*582 FILLER_0_19_173
*583 FILLER_0_19_187
*584 FILLER_0_19_206
*585 FILLER_0_19_21
*586 FILLER_0_19_218
*587 FILLER_0_19_225
*588 FILLER_0_19_233
*589 FILLER_0_19_240
*590 FILLER_0_19_33
*591 FILLER_0_19_39
*592 FILLER_0_19_48
*593 FILLER_0_19_65
*594 FILLER_0_19_73
*595 FILLER_0_19_80
*596 FILLER_0_19_9
*597 FILLER_0_19_92
*598 FILLER_0_1_103
*599 FILLER_0_1_111
*600 FILLER_0_1_113
*601 FILLER_0_1_125
*602 FILLER_0_1_137
*603 FILLER_0_1_145
*604 FILLER_0_1_161
*605 FILLER_0_1_167
*606 FILLER_0_1_169
*607 FILLER_0_1_184
*608 FILLER_0_1_199
*609 FILLER_0_1_21
*610 FILLER_0_1_220
*611 FILLER_0_1_225
*612 FILLER_0_1_232
*613 FILLER_0_1_242
*614 FILLER_0_1_33
*615 FILLER_0_1_47
*616 FILLER_0_1_54
*617 FILLER_0_1_65
*618 FILLER_0_1_77
*619 FILLER_0_1_85
*620 FILLER_0_1_9
*621 FILLER_0_1_93
*622 FILLER_0_20_10
*623 FILLER_0_20_109
*624 FILLER_0_20_123
*625 FILLER_0_20_127
*626 FILLER_0_20_135
*627 FILLER_0_20_139
*628 FILLER_0_20_141
*629 FILLER_0_20_153
*630 FILLER_0_20_165
*631 FILLER_0_20_169
*632 FILLER_0_20_177
*633 FILLER_0_20_18
*634 FILLER_0_20_183
*635 FILLER_0_20_188
*636 FILLER_0_20_197
*637 FILLER_0_20_209
*638 FILLER_0_20_221
*639 FILLER_0_20_229
*640 FILLER_0_20_241
*641 FILLER_0_20_26
*642 FILLER_0_20_29
*643 FILLER_0_20_3
*644 FILLER_0_20_33
*645 FILLER_0_20_37
*646 FILLER_0_20_49
*647 FILLER_0_20_53
*648 FILLER_0_20_60
*649 FILLER_0_20_68
*650 FILLER_0_20_7
*651 FILLER_0_20_85
*652 FILLER_0_20_97
*653 FILLER_0_21_102
*654 FILLER_0_21_110
*655 FILLER_0_21_113
*656 FILLER_0_21_125
*657 FILLER_0_21_137
*658 FILLER_0_21_141
*659 FILLER_0_21_149
*660 FILLER_0_21_161
*661 FILLER_0_21_167
*662 FILLER_0_21_183
*663 FILLER_0_21_195
*664 FILLER_0_21_207
*665 FILLER_0_21_21
*666 FILLER_0_21_219
*667 FILLER_0_21_223
*668 FILLER_0_21_225
*669 FILLER_0_21_237
*670 FILLER_0_21_243
*671 FILLER_0_21_33
*672 FILLER_0_21_45
*673 FILLER_0_21_53
*674 FILLER_0_21_66
*675 FILLER_0_21_78
*676 FILLER_0_21_9
*677 FILLER_0_21_90
*678 FILLER_0_22_109
*679 FILLER_0_22_118
*680 FILLER_0_22_130
*681 FILLER_0_22_138
*682 FILLER_0_22_141
*683 FILLER_0_22_15
*684 FILLER_0_22_154
*685 FILLER_0_22_160
*686 FILLER_0_22_168
*687 FILLER_0_22_176
*688 FILLER_0_22_181
*689 FILLER_0_22_193
*690 FILLER_0_22_197
*691 FILLER_0_22_207
*692 FILLER_0_22_224
*693 FILLER_0_22_236
*694 FILLER_0_22_27
*695 FILLER_0_22_29
*696 FILLER_0_22_3
*697 FILLER_0_22_33
*698 FILLER_0_22_39
*699 FILLER_0_22_51
*700 FILLER_0_22_63
*701 FILLER_0_22_75
*702 FILLER_0_22_83
*703 FILLER_0_22_85
*704 FILLER_0_22_97
*705 FILLER_0_23_108
*706 FILLER_0_23_113
*707 FILLER_0_23_125
*708 FILLER_0_23_13
*709 FILLER_0_23_138
*710 FILLER_0_23_150
*711 FILLER_0_23_166
*712 FILLER_0_23_169
*713 FILLER_0_23_181
*714 FILLER_0_23_193
*715 FILLER_0_23_223
*716 FILLER_0_23_225
*717 FILLER_0_23_233
*718 FILLER_0_23_241
*719 FILLER_0_23_25
*720 FILLER_0_23_37
*721 FILLER_0_23_49
*722 FILLER_0_23_55
*723 FILLER_0_23_57
*724 FILLER_0_23_69
*725 FILLER_0_23_81
*726 FILLER_0_23_89
*727 FILLER_0_23_96
*728 FILLER_0_24_111
*729 FILLER_0_24_135
*730 FILLER_0_24_139
*731 FILLER_0_24_148
*732 FILLER_0_24_154
*733 FILLER_0_24_16
*734 FILLER_0_24_162
*735 FILLER_0_24_174
*736 FILLER_0_24_178
*737 FILLER_0_24_189
*738 FILLER_0_24_195
*739 FILLER_0_24_197
*740 FILLER_0_24_209
*741 FILLER_0_24_221
*742 FILLER_0_24_242
*743 FILLER_0_24_3
*744 FILLER_0_24_46
*745 FILLER_0_24_51
*746 FILLER_0_24_63
*747 FILLER_0_24_75
*748 FILLER_0_24_83
*749 FILLER_0_24_85
*750 FILLER_0_24_91
*751 FILLER_0_24_99
*752 FILLER_0_25_101
*753 FILLER_0_25_11
*754 FILLER_0_25_113
*755 FILLER_0_25_130
*756 FILLER_0_25_142
*757 FILLER_0_25_148
*758 FILLER_0_25_159
*759 FILLER_0_25_165
*760 FILLER_0_25_169
*761 FILLER_0_25_181
*762 FILLER_0_25_19
*763 FILLER_0_25_193
*764 FILLER_0_25_205
*765 FILLER_0_25_217
*766 FILLER_0_25_223
*767 FILLER_0_25_37
*768 FILLER_0_25_45
*769 FILLER_0_25_57
*770 FILLER_0_25_69
*771 FILLER_0_25_81
*772 FILLER_0_25_93
*773 FILLER_0_26_129
*774 FILLER_0_26_137
*775 FILLER_0_26_151
*776 FILLER_0_26_163
*777 FILLER_0_26_175
*778 FILLER_0_26_187
*779 FILLER_0_26_195
*780 FILLER_0_26_197
*781 FILLER_0_26_209
*782 FILLER_0_26_21
*783 FILLER_0_26_221
*784 FILLER_0_26_241
*785 FILLER_0_26_27
*786 FILLER_0_26_29
*787 FILLER_0_26_41
*788 FILLER_0_26_53
*789 FILLER_0_26_65
*790 FILLER_0_26_77
*791 FILLER_0_26_83
*792 FILLER_0_26_85
*793 FILLER_0_26_89
*794 FILLER_0_26_9
*795 FILLER_0_26_95
*796 FILLER_0_27_107
*797 FILLER_0_27_11
*798 FILLER_0_27_111
*799 FILLER_0_27_126
*800 FILLER_0_27_138
*801 FILLER_0_27_150
*802 FILLER_0_27_162
*803 FILLER_0_27_169
*804 FILLER_0_27_181
*805 FILLER_0_27_187
*806 FILLER_0_27_197
*807 FILLER_0_27_209
*808 FILLER_0_27_221
*809 FILLER_0_27_225
*810 FILLER_0_27_23
*811 FILLER_0_27_243
*812 FILLER_0_27_3
*813 FILLER_0_27_35
*814 FILLER_0_27_47
*815 FILLER_0_27_55
*816 FILLER_0_27_57
*817 FILLER_0_27_63
*818 FILLER_0_27_75
*819 FILLER_0_27_79
*820 FILLER_0_28_103
*821 FILLER_0_28_109
*822 FILLER_0_28_121
*823 FILLER_0_28_139
*824 FILLER_0_28_141
*825 FILLER_0_28_15
*826 FILLER_0_28_156
*827 FILLER_0_28_168
*828 FILLER_0_28_189
*829 FILLER_0_28_195
*830 FILLER_0_28_197
*831 FILLER_0_28_209
*832 FILLER_0_28_213
*833 FILLER_0_28_221
*834 FILLER_0_28_238
*835 FILLER_0_28_27
*836 FILLER_0_28_29
*837 FILLER_0_28_41
*838 FILLER_0_28_53
*839 FILLER_0_28_65
*840 FILLER_0_28_77
*841 FILLER_0_28_83
*842 FILLER_0_28_91
*843 FILLER_0_29_100
*844 FILLER_0_29_110
*845 FILLER_0_29_119
*846 FILLER_0_29_15
*847 FILLER_0_29_150
*848 FILLER_0_29_162
*849 FILLER_0_29_169
*850 FILLER_0_29_181
*851 FILLER_0_29_189
*852 FILLER_0_29_202
*853 FILLER_0_29_223
*854 FILLER_0_29_225
*855 FILLER_0_29_233
*856 FILLER_0_29_243
*857 FILLER_0_29_27
*858 FILLER_0_29_39
*859 FILLER_0_29_51
*860 FILLER_0_29_55
*861 FILLER_0_29_57
*862 FILLER_0_29_69
*863 FILLER_0_29_81
*864 FILLER_0_2_109
*865 FILLER_0_2_121
*866 FILLER_0_2_133
*867 FILLER_0_2_139
*868 FILLER_0_2_141
*869 FILLER_0_2_153
*870 FILLER_0_2_159
*871 FILLER_0_2_167
*872 FILLER_0_2_17
*873 FILLER_0_2_179
*874 FILLER_0_2_187
*875 FILLER_0_2_195
*876 FILLER_0_2_197
*877 FILLER_0_2_209
*878 FILLER_0_2_215
*879 FILLER_0_2_222
*880 FILLER_0_2_231
*881 FILLER_0_2_243
*882 FILLER_0_2_27
*883 FILLER_0_2_29
*884 FILLER_0_2_33
*885 FILLER_0_2_39
*886 FILLER_0_2_51
*887 FILLER_0_2_63
*888 FILLER_0_2_75
*889 FILLER_0_2_83
*890 FILLER_0_2_85
*891 FILLER_0_2_9
*892 FILLER_0_2_97
*893 FILLER_0_30_109
*894 FILLER_0_30_124
*895 FILLER_0_30_136
*896 FILLER_0_30_148
*897 FILLER_0_30_15
*898 FILLER_0_30_155
*899 FILLER_0_30_186
*900 FILLER_0_30_194
*901 FILLER_0_30_197
*902 FILLER_0_30_201
*903 FILLER_0_30_218
*904 FILLER_0_30_240
*905 FILLER_0_30_27
*906 FILLER_0_30_29
*907 FILLER_0_30_3
*908 FILLER_0_30_41
*909 FILLER_0_30_53
*910 FILLER_0_30_64
*911 FILLER_0_30_76
*912 FILLER_0_30_85
*913 FILLER_0_30_97
*914 FILLER_0_31_105
*915 FILLER_0_31_111
*916 FILLER_0_31_126
*917 FILLER_0_31_138
*918 FILLER_0_31_150
*919 FILLER_0_31_162
*920 FILLER_0_31_169
*921 FILLER_0_31_17
*922 FILLER_0_31_181
*923 FILLER_0_31_193
*924 FILLER_0_31_206
*925 FILLER_0_31_210
*926 FILLER_0_31_215
*927 FILLER_0_31_223
*928 FILLER_0_31_225
*929 FILLER_0_31_229
*930 FILLER_0_31_241
*931 FILLER_0_31_28
*932 FILLER_0_31_34
*933 FILLER_0_31_46
*934 FILLER_0_31_54
*935 FILLER_0_31_57
*936 FILLER_0_31_69
*937 FILLER_0_31_81
*938 FILLER_0_31_93
*939 FILLER_0_32_113
*940 FILLER_0_32_121
*941 FILLER_0_32_124
*942 FILLER_0_32_134
*943 FILLER_0_32_141
*944 FILLER_0_32_15
*945 FILLER_0_32_154
*946 FILLER_0_32_166
*947 FILLER_0_32_178
*948 FILLER_0_32_190
*949 FILLER_0_32_197
*950 FILLER_0_32_205
*951 FILLER_0_32_217
*952 FILLER_0_32_225
*953 FILLER_0_32_233
*954 FILLER_0_32_238
*955 FILLER_0_32_27
*956 FILLER_0_32_29
*957 FILLER_0_32_3
*958 FILLER_0_32_37
*959 FILLER_0_32_40
*960 FILLER_0_32_56
*961 FILLER_0_32_64
*962 FILLER_0_32_68
*963 FILLER_0_32_72
*964 FILLER_0_32_83
*965 FILLER_0_32_99
*966 FILLER_0_33_101
*967 FILLER_0_33_109
*968 FILLER_0_33_120
*969 FILLER_0_33_138
*970 FILLER_0_33_161
*971 FILLER_0_33_167
*972 FILLER_0_33_169
*973 FILLER_0_33_181
*974 FILLER_0_33_193
*975 FILLER_0_33_205
*976 FILLER_0_33_209
*977 FILLER_0_33_21
*978 FILLER_0_33_231
*979 FILLER_0_33_241
*980 FILLER_0_33_33
*981 FILLER_0_33_45
*982 FILLER_0_33_55
*983 FILLER_0_33_57
*984 FILLER_0_33_79
*985 FILLER_0_33_9
*986 FILLER_0_34_109
*987 FILLER_0_34_121
*988 FILLER_0_34_125
*989 FILLER_0_34_141
*990 FILLER_0_34_149
*991 FILLER_0_34_15
*992 FILLER_0_34_157
*993 FILLER_0_34_165
*994 FILLER_0_34_180
*995 FILLER_0_34_192
*996 FILLER_0_34_210
*997 FILLER_0_34_222
*998 FILLER_0_34_234
*999 FILLER_0_34_242
*1000 FILLER_0_34_27
*1001 FILLER_0_34_3
*1002 FILLER_0_34_51
*1003 FILLER_0_34_63
*1004 FILLER_0_34_75
*1005 FILLER_0_34_83
*1006 FILLER_0_34_85
*1007 FILLER_0_34_97
*1008 FILLER_0_35_103
*1009 FILLER_0_35_111
*1010 FILLER_0_35_113
*1011 FILLER_0_35_128
*1012 FILLER_0_35_147
*1013 FILLER_0_35_159
*1014 FILLER_0_35_167
*1015 FILLER_0_35_169
*1016 FILLER_0_35_178
*1017 FILLER_0_35_185
*1018 FILLER_0_35_197
*1019 FILLER_0_35_208
*1020 FILLER_0_35_220
*1021 FILLER_0_35_24
*1022 FILLER_0_35_242
*1023 FILLER_0_35_32
*1024 FILLER_0_35_42
*1025 FILLER_0_35_54
*1026 FILLER_0_35_57
*1027 FILLER_0_35_61
*1028 FILLER_0_35_67
*1029 FILLER_0_35_79
*1030 FILLER_0_35_9
*1031 FILLER_0_35_91
*1032 FILLER_0_36_109
*1033 FILLER_0_36_113
*1034 FILLER_0_36_125
*1035 FILLER_0_36_137
*1036 FILLER_0_36_141
*1037 FILLER_0_36_153
*1038 FILLER_0_36_165
*1039 FILLER_0_36_169
*1040 FILLER_0_36_181
*1041 FILLER_0_36_19
*1042 FILLER_0_36_194
*1043 FILLER_0_36_197
*1044 FILLER_0_36_209
*1045 FILLER_0_36_221
*1046 FILLER_0_36_225
*1047 FILLER_0_36_243
*1048 FILLER_0_36_27
*1049 FILLER_0_36_29
*1050 FILLER_0_36_41
*1051 FILLER_0_36_53
*1052 FILLER_0_36_57
*1053 FILLER_0_36_69
*1054 FILLER_0_36_7
*1055 FILLER_0_36_81
*1056 FILLER_0_36_85
*1057 FILLER_0_36_97
*1058 FILLER_0_3_103
*1059 FILLER_0_3_111
*1060 FILLER_0_3_113
*1061 FILLER_0_3_12
*1062 FILLER_0_3_125
*1063 FILLER_0_3_137
*1064 FILLER_0_3_149
*1065 FILLER_0_3_161
*1066 FILLER_0_3_167
*1067 FILLER_0_3_169
*1068 FILLER_0_3_181
*1069 FILLER_0_3_191
*1070 FILLER_0_3_195
*1071 FILLER_0_3_204
*1072 FILLER_0_3_216
*1073 FILLER_0_3_225
*1074 FILLER_0_3_24
*1075 FILLER_0_3_241
*1076 FILLER_0_3_28
*1077 FILLER_0_3_36
*1078 FILLER_0_3_48
*1079 FILLER_0_3_57
*1080 FILLER_0_3_69
*1081 FILLER_0_3_91
*1082 FILLER_0_4_119
*1083 FILLER_0_4_136
*1084 FILLER_0_4_141
*1085 FILLER_0_4_15
*1086 FILLER_0_4_153
*1087 FILLER_0_4_165
*1088 FILLER_0_4_169
*1089 FILLER_0_4_177
*1090 FILLER_0_4_185
*1091 FILLER_0_4_189
*1092 FILLER_0_4_214
*1093 FILLER_0_4_226
*1094 FILLER_0_4_233
*1095 FILLER_0_4_27
*1096 FILLER_0_4_29
*1097 FILLER_0_4_3
*1098 FILLER_0_4_35
*1099 FILLER_0_4_43
*1100 FILLER_0_4_55
*1101 FILLER_0_4_67
*1102 FILLER_0_4_79
*1103 FILLER_0_4_83
*1104 FILLER_0_4_97
*1105 FILLER_0_5_108
*1106 FILLER_0_5_113
*1107 FILLER_0_5_121
*1108 FILLER_0_5_128
*1109 FILLER_0_5_140
*1110 FILLER_0_5_152
*1111 FILLER_0_5_163
*1112 FILLER_0_5_167
*1113 FILLER_0_5_169
*1114 FILLER_0_5_181
*1115 FILLER_0_5_189
*1116 FILLER_0_5_19
*1117 FILLER_0_5_199
*1118 FILLER_0_5_204
*1119 FILLER_0_5_214
*1120 FILLER_0_5_222
*1121 FILLER_0_5_225
*1122 FILLER_0_5_231
*1123 FILLER_0_5_31
*1124 FILLER_0_5_43
*1125 FILLER_0_5_55
*1126 FILLER_0_5_57
*1127 FILLER_0_5_68
*1128 FILLER_0_5_7
*1129 FILLER_0_5_84
*1130 FILLER_0_5_96
*1131 FILLER_0_6_109
*1132 FILLER_0_6_121
*1133 FILLER_0_6_132
*1134 FILLER_0_6_141
*1135 FILLER_0_6_153
*1136 FILLER_0_6_165
*1137 FILLER_0_6_177
*1138 FILLER_0_6_18
*1139 FILLER_0_6_191
*1140 FILLER_0_6_195
*1141 FILLER_0_6_197
*1142 FILLER_0_6_209
*1143 FILLER_0_6_221
*1144 FILLER_0_6_233
*1145 FILLER_0_6_241
*1146 FILLER_0_6_26
*1147 FILLER_0_6_29
*1148 FILLER_0_6_41
*1149 FILLER_0_6_53
*1150 FILLER_0_6_57
*1151 FILLER_0_6_80
*1152 FILLER_0_6_85
*1153 FILLER_0_6_97
*1154 FILLER_0_7_10
*1155 FILLER_0_7_105
*1156 FILLER_0_7_111
*1157 FILLER_0_7_118
*1158 FILLER_0_7_131
*1159 FILLER_0_7_152
*1160 FILLER_0_7_164
*1161 FILLER_0_7_169
*1162 FILLER_0_7_181
*1163 FILLER_0_7_19
*1164 FILLER_0_7_193
*1165 FILLER_0_7_205
*1166 FILLER_0_7_212
*1167 FILLER_0_7_230
*1168 FILLER_0_7_242
*1169 FILLER_0_7_3
*1170 FILLER_0_7_31
*1171 FILLER_0_7_37
*1172 FILLER_0_7_48
*1173 FILLER_0_7_57
*1174 FILLER_0_7_69
*1175 FILLER_0_7_7
*1176 FILLER_0_7_81
*1177 FILLER_0_7_93
*1178 FILLER_0_8_109
*1179 FILLER_0_8_121
*1180 FILLER_0_8_133
*1181 FILLER_0_8_139
*1182 FILLER_0_8_15
*1183 FILLER_0_8_155
*1184 FILLER_0_8_190
*1185 FILLER_0_8_197
*1186 FILLER_0_8_201
*1187 FILLER_0_8_209
*1188 FILLER_0_8_221
*1189 FILLER_0_8_233
*1190 FILLER_0_8_241
*1191 FILLER_0_8_29
*1192 FILLER_0_8_3
*1193 FILLER_0_8_41
*1194 FILLER_0_8_53
*1195 FILLER_0_8_65
*1196 FILLER_0_8_77
*1197 FILLER_0_8_83
*1198 FILLER_0_8_85
*1199 FILLER_0_8_97
*1200 FILLER_0_9_110
*1201 FILLER_0_9_113
*1202 FILLER_0_9_122
*1203 FILLER_0_9_134
*1204 FILLER_0_9_146
*1205 FILLER_0_9_158
*1206 FILLER_0_9_166
*1207 FILLER_0_9_169
*1208 FILLER_0_9_181
*1209 FILLER_0_9_193
*1210 FILLER_0_9_209
*1211 FILLER_0_9_21
*1212 FILLER_0_9_221
*1213 FILLER_0_9_225
*1214 FILLER_0_9_233
*1215 FILLER_0_9_239
*1216 FILLER_0_9_243
*1217 FILLER_0_9_33
*1218 FILLER_0_9_45
*1219 FILLER_0_9_53
*1220 FILLER_0_9_57
*1221 FILLER_0_9_69
*1222 FILLER_0_9_81
*1223 FILLER_0_9_9
*1224 FILLER_0_9_93
*1225 FILLER_0_9_98
*1226 PHY_EDGE_ROW_0_Left_37
*1227 PHY_EDGE_ROW_0_Right_0
*1228 PHY_EDGE_ROW_10_Left_47
*1229 PHY_EDGE_ROW_10_Right_10
*1230 PHY_EDGE_ROW_11_Left_48
*1231 PHY_EDGE_ROW_11_Right_11
*1232 PHY_EDGE_ROW_12_Left_49
*1233 PHY_EDGE_ROW_12_Right_12
*1234 PHY_EDGE_ROW_13_Left_50
*1235 PHY_EDGE_ROW_13_Right_13
*1236 PHY_EDGE_ROW_14_Left_51
*1237 PHY_EDGE_ROW_14_Right_14
*1238 PHY_EDGE_ROW_15_Left_52
*1239 PHY_EDGE_ROW_15_Right_15
*1240 PHY_EDGE_ROW_16_Left_53
*1241 PHY_EDGE_ROW_16_Right_16
*1242 PHY_EDGE_ROW_17_Left_54
*1243 PHY_EDGE_ROW_17_Right_17
*1244 PHY_EDGE_ROW_18_Left_55
*1245 PHY_EDGE_ROW_18_Right_18
*1246 PHY_EDGE_ROW_19_Left_56
*1247 PHY_EDGE_ROW_19_Right_19
*1248 PHY_EDGE_ROW_1_Left_38
*1249 PHY_EDGE_ROW_1_Right_1
*1250 PHY_EDGE_ROW_20_Left_57
*1251 PHY_EDGE_ROW_20_Right_20
*1252 PHY_EDGE_ROW_21_Left_58
*1253 PHY_EDGE_ROW_21_Right_21
*1254 PHY_EDGE_ROW_22_Left_59
*1255 PHY_EDGE_ROW_22_Right_22
*1256 PHY_EDGE_ROW_23_Left_60
*1257 PHY_EDGE_ROW_23_Right_23
*1258 PHY_EDGE_ROW_24_Left_61
*1259 PHY_EDGE_ROW_24_Right_24
*1260 PHY_EDGE_ROW_25_Left_62
*1261 PHY_EDGE_ROW_25_Right_25
*1262 PHY_EDGE_ROW_26_Left_63
*1263 PHY_EDGE_ROW_26_Right_26
*1264 PHY_EDGE_ROW_27_Left_64
*1265 PHY_EDGE_ROW_27_Right_27
*1266 PHY_EDGE_ROW_28_Left_65
*1267 PHY_EDGE_ROW_28_Right_28
*1268 PHY_EDGE_ROW_29_Left_66
*1269 PHY_EDGE_ROW_29_Right_29
*1270 PHY_EDGE_ROW_2_Left_39
*1271 PHY_EDGE_ROW_2_Right_2
*1272 PHY_EDGE_ROW_30_Left_67
*1273 PHY_EDGE_ROW_30_Right_30
*1274 PHY_EDGE_ROW_31_Left_68
*1275 PHY_EDGE_ROW_31_Right_31
*1276 PHY_EDGE_ROW_32_Left_69
*1277 PHY_EDGE_ROW_32_Right_32
*1278 PHY_EDGE_ROW_33_Left_70
*1279 PHY_EDGE_ROW_33_Right_33
*1280 PHY_EDGE_ROW_34_Left_71
*1281 PHY_EDGE_ROW_34_Right_34
*1282 PHY_EDGE_ROW_35_Left_72
*1283 PHY_EDGE_ROW_35_Right_35
*1284 PHY_EDGE_ROW_36_Left_73
*1285 PHY_EDGE_ROW_36_Right_36
*1286 PHY_EDGE_ROW_3_Left_40
*1287 PHY_EDGE_ROW_3_Right_3
*1288 PHY_EDGE_ROW_4_Left_41
*1289 PHY_EDGE_ROW_4_Right_4
*1290 PHY_EDGE_ROW_5_Left_42
*1291 PHY_EDGE_ROW_5_Right_5
*1292 PHY_EDGE_ROW_6_Left_43
*1293 PHY_EDGE_ROW_6_Right_6
*1294 PHY_EDGE_ROW_7_Left_44
*1295 PHY_EDGE_ROW_7_Right_7
*1296 PHY_EDGE_ROW_8_Left_45
*1297 PHY_EDGE_ROW_8_Right_8
*1298 PHY_EDGE_ROW_9_Left_46
*1299 PHY_EDGE_ROW_9_Right_9
*1300 TAP_TAPCELL_ROW_0_74
*1301 TAP_TAPCELL_ROW_0_75
*1302 TAP_TAPCELL_ROW_0_76
*1303 TAP_TAPCELL_ROW_0_77
*1304 TAP_TAPCELL_ROW_0_78
*1305 TAP_TAPCELL_ROW_0_79
*1306 TAP_TAPCELL_ROW_0_80
*1307 TAP_TAPCELL_ROW_0_81
*1308 TAP_TAPCELL_ROW_10_118
*1309 TAP_TAPCELL_ROW_10_119
*1310 TAP_TAPCELL_ROW_10_120
*1311 TAP_TAPCELL_ROW_10_121
*1312 TAP_TAPCELL_ROW_11_122
*1313 TAP_TAPCELL_ROW_11_123
*1314 TAP_TAPCELL_ROW_11_124
*1315 TAP_TAPCELL_ROW_11_125
*1316 TAP_TAPCELL_ROW_12_126
*1317 TAP_TAPCELL_ROW_12_127
*1318 TAP_TAPCELL_ROW_12_128
*1319 TAP_TAPCELL_ROW_12_129
*1320 TAP_TAPCELL_ROW_13_130
*1321 TAP_TAPCELL_ROW_13_131
*1322 TAP_TAPCELL_ROW_13_132
*1323 TAP_TAPCELL_ROW_13_133
*1324 TAP_TAPCELL_ROW_14_134
*1325 TAP_TAPCELL_ROW_14_135
*1326 TAP_TAPCELL_ROW_14_136
*1327 TAP_TAPCELL_ROW_14_137
*1328 TAP_TAPCELL_ROW_15_138
*1329 TAP_TAPCELL_ROW_15_139
*1330 TAP_TAPCELL_ROW_15_140
*1331 TAP_TAPCELL_ROW_15_141
*1332 TAP_TAPCELL_ROW_16_142
*1333 TAP_TAPCELL_ROW_16_143
*1334 TAP_TAPCELL_ROW_16_144
*1335 TAP_TAPCELL_ROW_16_145
*1336 TAP_TAPCELL_ROW_17_146
*1337 TAP_TAPCELL_ROW_17_147
*1338 TAP_TAPCELL_ROW_17_148
*1339 TAP_TAPCELL_ROW_17_149
*1340 TAP_TAPCELL_ROW_18_150
*1341 TAP_TAPCELL_ROW_18_151
*1342 TAP_TAPCELL_ROW_18_152
*1343 TAP_TAPCELL_ROW_18_153
*1344 TAP_TAPCELL_ROW_19_154
*1345 TAP_TAPCELL_ROW_19_155
*1346 TAP_TAPCELL_ROW_19_156
*1347 TAP_TAPCELL_ROW_19_157
*1348 TAP_TAPCELL_ROW_1_82
*1349 TAP_TAPCELL_ROW_1_83
*1350 TAP_TAPCELL_ROW_1_84
*1351 TAP_TAPCELL_ROW_1_85
*1352 TAP_TAPCELL_ROW_20_158
*1353 TAP_TAPCELL_ROW_20_159
*1354 TAP_TAPCELL_ROW_20_160
*1355 TAP_TAPCELL_ROW_20_161
*1356 TAP_TAPCELL_ROW_21_162
*1357 TAP_TAPCELL_ROW_21_163
*1358 TAP_TAPCELL_ROW_21_164
*1359 TAP_TAPCELL_ROW_21_165
*1360 TAP_TAPCELL_ROW_22_166
*1361 TAP_TAPCELL_ROW_22_167
*1362 TAP_TAPCELL_ROW_22_168
*1363 TAP_TAPCELL_ROW_22_169
*1364 TAP_TAPCELL_ROW_23_170
*1365 TAP_TAPCELL_ROW_23_171
*1366 TAP_TAPCELL_ROW_23_172
*1367 TAP_TAPCELL_ROW_23_173
*1368 TAP_TAPCELL_ROW_24_174
*1369 TAP_TAPCELL_ROW_24_175
*1370 TAP_TAPCELL_ROW_24_176
*1371 TAP_TAPCELL_ROW_24_177
*1372 TAP_TAPCELL_ROW_25_178
*1373 TAP_TAPCELL_ROW_25_179
*1374 TAP_TAPCELL_ROW_25_180
*1375 TAP_TAPCELL_ROW_25_181
*1376 TAP_TAPCELL_ROW_26_182
*1377 TAP_TAPCELL_ROW_26_183
*1378 TAP_TAPCELL_ROW_26_184
*1379 TAP_TAPCELL_ROW_26_185
*1380 TAP_TAPCELL_ROW_27_186
*1381 TAP_TAPCELL_ROW_27_187
*1382 TAP_TAPCELL_ROW_27_188
*1383 TAP_TAPCELL_ROW_27_189
*1384 TAP_TAPCELL_ROW_28_190
*1385 TAP_TAPCELL_ROW_28_191
*1386 TAP_TAPCELL_ROW_28_192
*1387 TAP_TAPCELL_ROW_28_193
*1388 TAP_TAPCELL_ROW_29_194
*1389 TAP_TAPCELL_ROW_29_195
*1390 TAP_TAPCELL_ROW_29_196
*1391 TAP_TAPCELL_ROW_29_197
*1392 TAP_TAPCELL_ROW_2_86
*1393 TAP_TAPCELL_ROW_2_87
*1394 TAP_TAPCELL_ROW_2_88
*1395 TAP_TAPCELL_ROW_2_89
*1396 TAP_TAPCELL_ROW_30_198
*1397 TAP_TAPCELL_ROW_30_199
*1398 TAP_TAPCELL_ROW_30_200
*1399 TAP_TAPCELL_ROW_30_201
*1400 TAP_TAPCELL_ROW_31_202
*1401 TAP_TAPCELL_ROW_31_203
*1402 TAP_TAPCELL_ROW_31_204
*1403 TAP_TAPCELL_ROW_31_205
*1404 TAP_TAPCELL_ROW_32_206
*1405 TAP_TAPCELL_ROW_32_207
*1406 TAP_TAPCELL_ROW_32_208
*1407 TAP_TAPCELL_ROW_32_209
*1408 TAP_TAPCELL_ROW_33_210
*1409 TAP_TAPCELL_ROW_33_211
*1410 TAP_TAPCELL_ROW_33_212
*1411 TAP_TAPCELL_ROW_33_213
*1412 TAP_TAPCELL_ROW_34_214
*1413 TAP_TAPCELL_ROW_34_215
*1414 TAP_TAPCELL_ROW_34_216
*1415 TAP_TAPCELL_ROW_34_217
*1416 TAP_TAPCELL_ROW_35_218
*1417 TAP_TAPCELL_ROW_35_219
*1418 TAP_TAPCELL_ROW_35_220
*1419 TAP_TAPCELL_ROW_35_221
*1420 TAP_TAPCELL_ROW_36_222
*1421 TAP_TAPCELL_ROW_36_223
*1422 TAP_TAPCELL_ROW_36_224
*1423 TAP_TAPCELL_ROW_36_225
*1424 TAP_TAPCELL_ROW_36_226
*1425 TAP_TAPCELL_ROW_36_227
*1426 TAP_TAPCELL_ROW_36_228
*1427 TAP_TAPCELL_ROW_36_229
*1428 TAP_TAPCELL_ROW_3_90
*1429 TAP_TAPCELL_ROW_3_91
*1430 TAP_TAPCELL_ROW_3_92
*1431 TAP_TAPCELL_ROW_3_93
*1432 TAP_TAPCELL_ROW_4_94
*1433 TAP_TAPCELL_ROW_4_95
*1434 TAP_TAPCELL_ROW_4_96
*1435 TAP_TAPCELL_ROW_4_97
*1436 TAP_TAPCELL_ROW_5_100
*1437 TAP_TAPCELL_ROW_5_101
*1438 TAP_TAPCELL_ROW_5_98
*1439 TAP_TAPCELL_ROW_5_99
*1440 TAP_TAPCELL_ROW_6_102
*1441 TAP_TAPCELL_ROW_6_103
*1442 TAP_TAPCELL_ROW_6_104
*1443 TAP_TAPCELL_ROW_6_105
*1444 TAP_TAPCELL_ROW_7_106
*1445 TAP_TAPCELL_ROW_7_107
*1446 TAP_TAPCELL_ROW_7_108
*1447 TAP_TAPCELL_ROW_7_109
*1448 TAP_TAPCELL_ROW_8_110
*1449 TAP_TAPCELL_ROW_8_111
*1450 TAP_TAPCELL_ROW_8_112
*1451 TAP_TAPCELL_ROW_8_113
*1452 TAP_TAPCELL_ROW_9_114
*1453 TAP_TAPCELL_ROW_9_115
*1454 TAP_TAPCELL_ROW_9_116
*1455 TAP_TAPCELL_ROW_9_117
*1456 _248_
*1457 _249_
*1458 _250_
*1459 _251_
*1460 _252_
*1461 _253_
*1462 _254_
*1463 _255_
*1464 _256_
*1465 _257_
*1466 _258_
*1467 _259_
*1468 _260_
*1469 _261_
*1470 _262_
*1471 _263_
*1472 _264_
*1473 _265_
*1474 _266_
*1475 _267_
*1476 _268_
*1477 _269_
*1478 _270_
*1479 _271_
*1480 _272_
*1481 _273_
*1482 _274_
*1483 _275_
*1484 _276_
*1485 _277_
*1486 _278_
*1487 _279_
*1488 _280_
*1489 _281_
*1490 _282_
*1491 _283_
*1492 _284_
*1493 _285_
*1494 _286_
*1495 _287_
*1496 _288_
*1497 _289_
*1498 _290_
*1499 _291_
*1500 _292_
*1501 _293_
*1502 _294_
*1503 _295_
*1504 _296_
*1505 _297_
*1506 _298_
*1507 _299_
*1508 _300_
*1509 _301_
*1510 _302_
*1511 _303_
*1512 _304_
*1513 _305_
*1514 _306_
*1515 _307_
*1516 _308_
*1517 _309_
*1518 _310_
*1519 _311_
*1520 _312_
*1521 _313_
*1522 _314_
*1523 _315_
*1524 _316_
*1525 _317_
*1526 _318_
*1527 _319_
*1528 _320_
*1529 _321_
*1530 _322_
*1531 _323_
*1532 _324_
*1533 _325_
*1534 _326_
*1535 _327_
*1536 _328_
*1537 _329_
*1538 _330_
*1539 _331_
*1540 _332_
*1541 _333_
*1542 _334_
*1543 _335_
*1544 _336_
*1545 _337_
*1546 _338_
*1547 _339_
*1548 _340_
*1549 _341_
*1550 _342_
*1551 _343_
*1552 _344_