*SPEF "ieee 1481-1999"
*DESIGN "project1"
*DATE "12:25:23 Saturday April 26, 2025"
*VENDOR "The OpenROAD Project"
*PROGRAM "OpenROAD"
*VERSION "b16bda7e82721d10566ff7e2b68f1ff0be9f9e38"
*DESIGN_FLOW "NAME_SCOPE LOCAL" "PIN_CAP NONE"
*DIVIDER /
*DELIMITER :
*BUS_DELIMITER []
*T_UNIT 1 NS
*C_UNIT 1 PF
*R_UNIT 1 OHM
*L_UNIT 1 HENRY

*NAME_MAP
*3 in1[0]
*4 in1[1]
*5 in1[2]
*6 in1[3]
*7 in1[4]
*8 in1[5]
*9 in1[6]
*10 in1[7]
*11 out1[0]
*12 out1[1]
*13 out1[2]
*14 out1[3]
*15 out1[4]
*16 out1[5]
*17 out1[6]
*18 out1[7]
*19 _00_
*20 _01_
*21 _02_
*22 _03_
*23 _04_
*24 _05_
*25 _06_
*26 _07_
*27 _08_
*28 _09_
*29 net1
*30 net10
*31 net11
*32 net12
*33 net13
*34 net14
*35 net15
*36 net16
*37 net2
*38 net3
*39 net4
*40 net5
*41 net6
*42 net7
*43 net8
*44 net9
*45 FILLER_0_0_21
*46 FILLER_0_0_27
*47 FILLER_0_0_29
*48 FILLER_0_0_37
*49 FILLER_0_0_9
*50 FILLER_0_10_14
*51 FILLER_0_10_24
*52 FILLER_0_10_29
*53 FILLER_0_10_33
*54 FILLER_0_10_6
*55 FILLER_0_11_15
*56 FILLER_0_11_27
*57 FILLER_0_11_3
*58 FILLER_0_11_31
*59 FILLER_0_11_37
*60 FILLER_0_11_45
*61 FILLER_0_12_21
*62 FILLER_0_12_27
*63 FILLER_0_12_29
*64 FILLER_0_12_37
*65 FILLER_0_12_9
*66 FILLER_0_1_15
*67 FILLER_0_1_3
*68 FILLER_0_1_30
*69 FILLER_0_1_42
*70 FILLER_0_2_18
*71 FILLER_0_2_26
*72 FILLER_0_2_29
*73 FILLER_0_2_3
*74 FILLER_0_2_42
*75 FILLER_0_3_18
*76 FILLER_0_3_30
*77 FILLER_0_3_42
*78 FILLER_0_3_6
*79 FILLER_0_4_15
*80 FILLER_0_4_24
*81 FILLER_0_4_3
*82 FILLER_0_4_34
*83 FILLER_0_4_46
*84 FILLER_0_5_12
*85 FILLER_0_5_22
*86 FILLER_0_5_28
*87 FILLER_0_5_35
*88 FILLER_0_5_43
*89 FILLER_0_5_6
*90 FILLER_0_6_15
*91 FILLER_0_6_27
*92 FILLER_0_6_29
*93 FILLER_0_6_3
*94 FILLER_0_6_35
*95 FILLER_0_6_39
*96 FILLER_0_6_47
*97 FILLER_0_7_15
*98 FILLER_0_7_27
*99 FILLER_0_7_3
*100 FILLER_0_7_33
*101 FILLER_0_7_37
*102 FILLER_0_7_45
*103 FILLER_0_8_18
*104 FILLER_0_8_26
*105 FILLER_0_8_29
*106 FILLER_0_8_37
*107 FILLER_0_8_42
*108 FILLER_0_8_6
*109 FILLER_0_9_15
*110 FILLER_0_9_19
*111 FILLER_0_9_3
*112 FILLER_0_9_30
*113 FILLER_0_9_42
*114 PHY_EDGE_ROW_0_Left_13
*115 PHY_EDGE_ROW_0_Right_0
*116 PHY_EDGE_ROW_10_Left_23
*117 PHY_EDGE_ROW_10_Right_10
*118 PHY_EDGE_ROW_11_Left_24
*119 PHY_EDGE_ROW_11_Right_11
*120 PHY_EDGE_ROW_12_Left_25
*121 PHY_EDGE_ROW_12_Right_12
*122 PHY_EDGE_ROW_1_Left_14
*123 PHY_EDGE_ROW_1_Right_1
*124 PHY_EDGE_ROW_2_Left_15
*125 PHY_EDGE_ROW_2_Right_2
*126 PHY_EDGE_ROW_3_Left_16
*127 PHY_EDGE_ROW_3_Right_3
*128 PHY_EDGE_ROW_4_Left_17
*129 PHY_EDGE_ROW_4_Right_4
*130 PHY_EDGE_ROW_5_Left_18
*131 PHY_EDGE_ROW_5_Right_5
*132 PHY_EDGE_ROW_6_Left_19
*133 PHY_EDGE_ROW_6_Right_6
*134 PHY_EDGE_ROW_7_Left_20
*135 PHY_EDGE_ROW_7_Right_7
*136 PHY_EDGE_ROW_8_Left_21
*137 PHY_EDGE_ROW_8_Right_8
*138 PHY_EDGE_ROW_9_Left_22
*139 PHY_EDGE_ROW_9_Right_9
*140 TAP_TAPCELL_ROW_0_26
*141 TAP_TAPCELL_ROW_10_31
*142 TAP_TAPCELL_ROW_12_32
*143 TAP_TAPCELL_ROW_2_27
*144 TAP_TAPCELL_ROW_4_28
*145 TAP_TAPCELL_ROW_6_29
*146 TAP_TAPCELL_ROW_8_30
*147 _10_
*148 _11_
*149 _12_
*150 _13_
*151 _14_
*152 _15_
*153 _16_
*154 _17_
*155 _18_
*156 _19_
*157 _20_
*158 _21_
*159 _22_
*160 _23_
*161 _24_
*162 _25_
*163 _26_
*164 _27_
*165 input1
*166 input2
*167 input3
*168 input4
*169 input5
*170 input6
*171 input7
*172 input8
*173 output10
*174 output11
*175 output12
*176 output13
*177 output14
*178 output15
*179 output16
*180 output9

*PORTS
in1[0] I
in1[1] I
in1[2] I
in1[3] I
in1[4] I
in1[5] I
in1[6] I
in1[7] I
out1[0] O
out1[1] O
out1[2] O
out1[3] O
out1[4] O
out1[5] O
out1[6] O
out1[7] O

*D_NET *3 0.00101438
*CONN
*P in1[0] I
*I *165:A I *D sky130_fd_sc_hd__buf_1
*CAP
1 in1[0] 0.000507191
2 *165:A 0.000507191
3 *165:A *166:A 0
*RES
1 in1[0] *165:A 10.2018 
*END

*D_NET *4 0.000760629
*CONN
*P in1[1] I
*I *166:A I *D sky130_fd_sc_hd__buf_1
*CAP
1 in1[1] 0.000355334
2 *166:A 0.000355334
3 *166:A *167:A 0
4 *166:A *29:10 4.99619e-05
5 *165:A *166:A 0
*RES
1 in1[1] *166:A 8.2293 
*END

*D_NET *5 0.000531065
*CONN
*P in1[2] I
*I *167:A I *D sky130_fd_sc_hd__buf_1
*CAP
1 in1[2] 0.000265532
2 *167:A 0.000265532
3 *167:A *168:A 0
4 *166:A *167:A 0
*RES
1 in1[2] *167:A 6.8343 
*END

*D_NET *6 0.000645774
*CONN
*P in1[3] I
*I *168:A I *D sky130_fd_sc_hd__clkbuf_1
*CAP
1 in1[3] 0.000322887
2 *168:A 0.000322887
3 *168:A *150:D 0
4 *168:A *169:A 0
5 *167:A *168:A 0
*RES
1 in1[3] *168:A 7.8543 
*END

*D_NET *7 0.0005615
*CONN
*P in1[4] I
*I *169:A I *D sky130_fd_sc_hd__buf_1
*CAP
1 in1[4] 0.00028075
2 *169:A 0.00028075
3 *169:A *150:D 0
4 *169:A *170:A 0
5 *168:A *169:A 0
*RES
1 in1[4] *169:A 7.0893 
*END

*D_NET *8 0.000666425
*CONN
*P in1[5] I
*I *170:A I *D sky130_fd_sc_hd__buf_1
*CAP
1 in1[5] 0.000333212
2 *170:A 0.000333212
3 *170:A *150:D 0
4 *170:A *171:A 0
5 *169:A *170:A 0
*RES
1 in1[5] *170:A 8.1093 
*END

*D_NET *9 0.000523624
*CONN
*P in1[6] I
*I *171:A I *D sky130_fd_sc_hd__clkbuf_1
*CAP
1 in1[6] 0.000261812
2 *171:A 0.000261812
3 *171:A *172:A 0
4 *170:A *171:A 0
*RES
1 in1[6] *171:A 6.8343 
*END

*D_NET *10 0.00115517
*CONN
*P in1[7] I
*I *172:A I *D sky130_fd_sc_hd__buf_1
*CAP
1 in1[7] 0.000577586
2 *172:A 0.000577586
3 *171:A *172:A 0
*RES
1 in1[7] *172:A 10.6316 
*END

*D_NET *11 0.00109227
*CONN
*P out1[0] O
*I *180:X O *D sky130_fd_sc_hd__buf_2
*CAP
1 out1[0] 0.000546133
2 *180:X 0.000546133
3 out1[0] out1[1] 0
*RES
1 *180:X out1[0] 9.66983 
*END

*D_NET *12 0.000411239
*CONN
*P out1[1] O
*I *173:X O *D sky130_fd_sc_hd__buf_2
*CAP
1 out1[1] 0.00020562
2 *173:X 0.00020562
3 out1[1] out1[2] 0
4 out1[0] out1[1] 0
*RES
1 *173:X out1[1] 4.84677 
*END

*D_NET *13 0.000410041
*CONN
*P out1[2] O
*I *174:X O *D sky130_fd_sc_hd__buf_2
*CAP
1 out1[2] 0.00020502
2 *174:X 0.00020502
3 out1[2] out1[3] 0
4 out1[2] *173:A 0
5 out1[1] out1[2] 0
*RES
1 *174:X out1[2] 4.84677 
*END

*D_NET *14 0.00055932
*CONN
*P out1[3] O
*I *175:X O *D sky130_fd_sc_hd__buf_2
*CAP
1 out1[3] 0.000250257
2 *175:X 0.000250257
3 out1[3] out1[4] 0
4 out1[3] *176:A 5.8807e-05
5 out1[2] out1[3] 0
*RES
1 *175:X out1[3] 5.86677 
*END

*D_NET *15 0.000410041
*CONN
*P out1[4] O
*I *176:X O *D sky130_fd_sc_hd__buf_2
*CAP
1 out1[4] 0.00020502
2 *176:X 0.00020502
3 out1[4] out1[5] 0
4 out1[4] *173:A 0
5 out1[3] out1[4] 0
*RES
1 *176:X out1[4] 4.84677 
*END

*D_NET *16 0.00054541
*CONN
*P out1[5] O
*I *177:X O *D sky130_fd_sc_hd__buf_2
*CAP
1 out1[5] 0.000272705
2 *177:X 0.000272705
3 out1[5] out1[6] 0
4 out1[5] *163:B 0
5 out1[5] *173:A 0
6 out1[4] out1[5] 0
*RES
1 *177:X out1[5] 5.86677 
*END

*D_NET *17 0.000720218
*CONN
*P out1[6] O
*I *178:X O *D sky130_fd_sc_hd__buf_2
*CAP
1 out1[6] 0.000347884
2 *178:X 0.000347884
3 out1[6] out1[7] 0
4 out1[6] *179:A 2.44513e-05
5 out1[5] out1[6] 0
*RES
1 *178:X out1[6] 5.19637 
*END

*D_NET *18 0.000971234
*CONN
*P out1[7] O
*I *179:X O *D sky130_fd_sc_hd__clkbuf_4
*CAP
1 out1[7] 0.000485617
2 *179:X 0.000485617
3 out1[6] out1[7] 0
*RES
1 *179:X out1[7] 10.1435 
*END

*D_NET *19 0.00195968
*CONN
*I *163:A I *D sky130_fd_sc_hd__nor2_1
*I *148:B I *D sky130_fd_sc_hd__xnor2_1
*I *147:Y O *D sky130_fd_sc_hd__nor2_1
*CAP
1 *163:A 0.00012062
2 *148:B 0
3 *147:Y 0.000338733
4 *19:12 0.000459353
5 *163:A *148:A 0
6 *163:A *174:A 4.82919e-05
7 *19:12 *153:A 0
8 *19:12 *156:A 0.000165068
9 *19:12 *160:A 0.000296088
10 *19:12 *23:10 0.000302019
11 *19:12 *41:10 0.000103974
12 *19:12 *41:25 0.000125533
*RES
1 *147:Y *19:12 15.59 
2 *19:12 *148:B 1.6 
3 *19:12 *163:A 3.445 
*END

*D_NET *20 0.00159291
*CONN
*I *151:A_N I *D sky130_fd_sc_hd__and2b_1
*I *149:X O *D sky130_fd_sc_hd__o31a_1
*CAP
1 *151:A_N 0.00050132
2 *149:X 0.00050132
3 *151:A_N *149:B1 8.48545e-05
4 *151:A_N *161:A 0
5 *151:A_N *163:B 2.93678e-05
6 *151:A_N *38:12 0.000428273
7 *151:A_N *40:8 4.77757e-05
*RES
1 *149:X *151:A_N 17.73 
*END

*D_NET *21 0.00560165
*CONN
*I *154:B I *D sky130_fd_sc_hd__and2_1
*I *158:A3 I *D sky130_fd_sc_hd__o31ai_1
*I *151:B I *D sky130_fd_sc_hd__and2b_1
*I *157:D I *D sky130_fd_sc_hd__or4_1
*I *153:B I *D sky130_fd_sc_hd__nor2_1
*I *150:X O *D sky130_fd_sc_hd__or4_2
*CAP
1 *154:B 0.00058805
2 *158:A3 0
3 *151:B 0
4 *157:D 0
5 *153:B 0.000344193
6 *150:X 0.000111649
7 *21:51 0.000828339
8 *21:40 0.000373425
9 *21:27 0.000341021
10 *21:8 0.000663726
11 *153:B *153:A 4.82863e-05
12 *153:B *23:10 4.82919e-05
13 *153:B *42:10 0.000206824
14 *154:B *152:A 0
15 *154:B *153:A 7.21296e-06
16 *154:B *154:A 0.00100939
17 *154:B *156:A 1.86911e-05
18 *154:B *180:A 0
19 *154:B *41:25 5.53249e-06
20 *21:8 *148:A 9.28507e-05
21 *21:27 *158:B1 3.6637e-05
22 *21:27 *42:10 0.000249928
23 *21:40 *157:A 6.13283e-05
24 *21:40 *158:B1 1.74869e-05
25 *21:40 *163:B 8.41307e-05
26 *21:51 *153:A 1.7396e-05
27 *21:51 *163:B 0.000419386
28 *21:51 *41:25 2.7881e-05
*RES
1 *150:X *21:8 5.085 
2 *21:8 *153:B 9.57 
3 *21:8 *21:27 4.32 
4 *21:27 *157:D 3.6 
5 *21:27 *21:40 4.685 
6 *21:40 *151:B 1.6 
7 *21:40 *21:51 6.515 
8 *21:51 *158:A3 3.6 
9 *21:51 *154:B 17.085 
*END

*D_NET *22 0.00153726
*CONN
*I *152:A I *D sky130_fd_sc_hd__clkbuf_1
*I *151:X O *D sky130_fd_sc_hd__and2b_1
*CAP
1 *152:A 0.000620122
2 *151:X 0.000620122
3 *152:A *161:A 0
4 *152:A *161:B 0
5 *152:A *179:A 6.06649e-05
6 *152:A *40:27 0.00023635
7 *154:B *152:A 0
*RES
1 *151:X *152:A 17.13 
*END

*D_NET *23 0.00407642
*CONN
*I *156:B I *D sky130_fd_sc_hd__xnor2_1
*I *155:A I *D sky130_fd_sc_hd__nor2_1
*I *153:Y O *D sky130_fd_sc_hd__nor2_1
*CAP
1 *156:B 0.000158633
2 *155:A 6.05382e-05
3 *153:Y 0.000632812
4 *23:10 0.000851983
5 *156:B *147:B 0.000200971
6 *156:B *155:B 0
7 *156:B *174:A 0.000185633
8 *156:B *29:49 2.59981e-05
9 *23:10 *147:B 0.000166346
10 *23:10 *153:A 0
11 *23:10 *156:A 0
12 *23:10 *160:A 0.000296088
13 *23:10 *174:A 0.000229364
14 *23:10 *178:A 0.00078734
15 *23:10 *179:A 0.000130398
16 *153:B *23:10 4.82919e-05
17 *19:12 *23:10 0.000302019
*RES
1 *153:Y *23:10 20.43 
2 *23:10 *155:A 4.395 
3 *23:10 *156:B 8.04 
*END

*D_NET *24 0.00152442
*CONN
*I *155:B I *D sky130_fd_sc_hd__nor2_1
*I *154:X O *D sky130_fd_sc_hd__and2_1
*CAP
1 *155:B 0.000294927
2 *154:X 0.000294927
3 *155:B *154:A 0
4 *155:B *173:A 0.000511743
5 *155:B *174:A 1.1561e-05
6 *155:B *177:A 0.000317485
7 *155:B *180:A 9.37731e-05
8 *156:B *155:B 0
*RES
1 *154:X *155:B 15 
*END

*D_NET *25 0.00207727
*CONN
*I *161:B I *D sky130_fd_sc_hd__xor2_1
*I *159:A I *D sky130_fd_sc_hd__and2_1
*I *157:X O *D sky130_fd_sc_hd__or4_1
*CAP
1 *161:B 0.000391739
2 *159:A 0.000124438
3 *157:X 0
4 *25:4 0.000516177
5 *159:A *157:B 0.000197167
6 *161:B *153:A 0
7 *161:B *161:A 0.000824048
8 *161:B *179:A 2.37037e-05
9 *152:A *161:B 0
*RES
1 *157:X *25:4 1.6 
2 *25:4 *159:A 4.39 
3 *25:4 *161:B 15.14 
*END

*D_NET *26 0.000324336
*CONN
*I *159:B I *D sky130_fd_sc_hd__and2_1
*I *158:Y O *D sky130_fd_sc_hd__o31ai_1
*CAP
1 *159:B 6.9485e-05
2 *158:Y 6.9485e-05
3 *159:B *153:A 7.81954e-05
4 *159:B *157:B 4.99619e-05
5 *159:B *41:25 5.72091e-05
*RES
1 *158:Y *159:B 9.285 
*END

*D_NET *27 0.000961066
*CONN
*I *160:A I *D sky130_fd_sc_hd__clkbuf_1
*I *159:X O *D sky130_fd_sc_hd__and2_1
*CAP
1 *160:A 0.000183116
2 *159:X 0.000183116
3 *160:A *157:B 2.65814e-06
4 *19:12 *160:A 0.000296088
5 *23:10 *160:A 0.000296088
*RES
1 *159:X *160:A 11.76 
*END

*D_NET *28 0.00341105
*CONN
*I *163:B I *D sky130_fd_sc_hd__nor2_1
*I *162:X O *D sky130_fd_sc_hd__and2_1
*CAP
1 *163:B 0.000634197
2 *162:X 0.000634197
3 *163:B *158:A1 2.61974e-05
4 *163:B *158:A2 2.91343e-05
5 *163:B *158:B1 0.000308719
6 *163:B *173:A 0.000474343
7 *163:B *174:A 8.68803e-05
8 *163:B *177:A 0.000342942
9 *163:B *178:A 1.65105e-05
10 *163:B *179:A 0.000126494
11 *163:B *40:8 0.000114166
12 *163:B *40:27 1.91597e-05
13 *163:B *40:42 6.52265e-05
14 out1[5] *163:B 0
15 *151:A_N *163:B 2.93678e-05
16 *21:40 *163:B 8.41307e-05
17 *21:51 *163:B 0.000419386
*RES
1 *162:X *163:B 23.88 
*END

*D_NET *29 0.0083289
*CONN
*I *164:A I *D sky130_fd_sc_hd__clkbuf_1
*I *147:B I *D sky130_fd_sc_hd__nor2_1
*I *149:A2 I *D sky130_fd_sc_hd__o31a_1
*I *162:B I *D sky130_fd_sc_hd__and2_1
*I *150:B I *D sky130_fd_sc_hd__or4_2
*I *165:X O *D sky130_fd_sc_hd__buf_1
*CAP
1 *164:A 0.00018144
2 *147:B 0.00018666
3 *149:A2 0
4 *162:B 5.63822e-05
5 *150:B 0.000245745
6 *165:X 0.000211428
7 *29:49 0.000707729
8 *29:38 0.000424864
9 *29:12 0.000508584
10 *29:10 0.000503119
11 *147:B *156:A 0.00024612
12 *150:B *150:A 0.000545198
13 *150:B *150:D 0.000539689
14 *150:B *37:12 4.31106e-05
15 *162:B *162:A 4.66108e-05
16 *162:B *40:8 4.60123e-05
17 *164:A *156:A 4.82919e-05
18 *164:A *174:A 0.000158072
19 *164:A *180:A 1.83756e-05
20 *29:10 *37:8 0.000294414
21 *29:12 *149:B1 0.000273695
22 *29:12 *150:D 0.000558818
23 *29:12 *37:8 2.14129e-05
24 *29:12 *37:10 0.000514333
25 *29:12 *37:12 0.000343907
26 *29:38 *149:A1 0.000422715
27 *29:38 *149:A3 0.000264077
28 *29:38 *149:B1 4.18336e-05
29 *29:38 *38:6 0.000232403
30 *29:49 *149:A3 4.99619e-05
31 *29:49 *149:B1 4.60584e-05
32 *29:49 *154:A 8.08153e-06
33 *29:49 *156:A 9.64815e-05
34 *156:B *147:B 0.000200971
35 *156:B *29:49 2.59981e-05
36 *166:A *29:10 4.99619e-05
37 *23:10 *147:B 0.000166346
*RES
1 *165:X *29:10 7.815 
2 *29:10 *29:12 10.05 
3 *29:12 *150:B 11.055 
4 *29:12 *162:B 4.755 
5 *29:10 *29:38 6.59 
6 *29:38 *149:A2 1.6 
7 *29:38 *29:49 7.895 
8 *29:49 *147:B 9.87 
9 *29:49 *164:A 6.93 
*END

*D_NET *30 0.00347244
*CONN
*I *173:A I *D sky130_fd_sc_hd__buf_2
*I *163:Y O *D sky130_fd_sc_hd__nor2_1
*CAP
1 *173:A 0.000808188
2 *163:Y 0.000808188
3 *173:A *175:A 7.4529e-05
4 *173:A *176:A 0.000269892
5 *173:A *177:A 0.000297588
6 *173:A *179:A 0.000113124
7 *173:A *180:A 0.000114846
8 out1[2] *173:A 0
9 out1[4] *173:A 0
10 out1[5] *173:A 0
11 *155:B *173:A 0.000511743
12 *163:B *173:A 0.000474343
*RES
1 *163:Y *173:A 28.185 
*END

*D_NET *31 0.00376702
*CONN
*I *174:A I *D sky130_fd_sc_hd__buf_2
*I *148:Y O *D sky130_fd_sc_hd__xnor2_1
*CAP
1 *174:A 0.000505854
2 *148:Y 0.000505854
3 *174:A *177:A 0.00118931
4 *174:A *178:A 0.000632859
5 *174:A *179:A 0.000213346
6 *155:B *174:A 1.1561e-05
7 *156:B *174:A 0.000185633
8 *163:A *174:A 4.82919e-05
9 *163:B *174:A 8.68803e-05
10 *164:A *174:A 0.000158072
11 *23:10 *174:A 0.000229364
*RES
1 *148:Y *174:A 25.5 
*END

*D_NET *32 0.00129343
*CONN
*I *175:A I *D sky130_fd_sc_hd__buf_2
*I *152:X O *D sky130_fd_sc_hd__clkbuf_1
*CAP
1 *175:A 0.000609453
2 *152:X 0.000609453
3 *173:A *175:A 7.4529e-05
*RES
1 *152:X *175:A 14.115 
*END

*D_NET *33 0.00105026
*CONN
*I *176:A I *D sky130_fd_sc_hd__buf_2
*I *155:Y O *D sky130_fd_sc_hd__nor2_1
*CAP
1 *176:A 0.000360782
2 *155:Y 0.000360782
3 out1[3] *176:A 5.8807e-05
4 *173:A *176:A 0.000269892
*RES
1 *155:Y *176:A 14.145 
*END

*D_NET *34 0.00294071
*CONN
*I *177:A I *D sky130_fd_sc_hd__buf_2
*I *156:Y O *D sky130_fd_sc_hd__xnor2_1
*CAP
1 *177:A 0.000396695
2 *156:Y 0.000396695
3 *155:B *177:A 0.000317485
4 *163:B *177:A 0.000342942
5 *173:A *177:A 0.000297588
6 *174:A *177:A 0.00118931
*RES
1 *156:Y *177:A 22.305 
*END

*D_NET *35 0.00230542
*CONN
*I *178:A I *D sky130_fd_sc_hd__buf_2
*I *160:X O *D sky130_fd_sc_hd__clkbuf_1
*CAP
1 *178:A 0.000382042
2 *160:X 0.000382042
3 *178:A *179:A 0.000104622
4 *163:B *178:A 1.65105e-05
5 *174:A *178:A 0.000632859
6 *23:10 *178:A 0.00078734
*RES
1 *160:X *178:A 19.035 
*END

*D_NET *36 0.00449554
*CONN
*I *179:A I *D sky130_fd_sc_hd__clkbuf_4
*I *161:X O *D sky130_fd_sc_hd__xor2_1
*CAP
1 *179:A 0.00184937
2 *161:X 0.00184937
3 out1[6] *179:A 2.44513e-05
4 *152:A *179:A 6.06649e-05
5 *161:B *179:A 2.37037e-05
6 *163:B *179:A 0.000126494
7 *173:A *179:A 0.000113124
8 *174:A *179:A 0.000213346
9 *178:A *179:A 0.000104622
10 *23:10 *179:A 0.000130398
*RES
1 *161:X *179:A 14.3769 
*END

*D_NET *37 0.00627162
*CONN
*I *149:A1 I *D sky130_fd_sc_hd__o31a_1
*I *147:A I *D sky130_fd_sc_hd__nor2_1
*I *162:A I *D sky130_fd_sc_hd__and2_1
*I *150:A I *D sky130_fd_sc_hd__or4_2
*I *166:X O *D sky130_fd_sc_hd__buf_1
*CAP
1 *149:A1 6.68696e-05
2 *147:A 0.000668225
3 *162:A 2.61242e-05
4 *150:A 0.000355226
5 *166:X 0.000160558
6 *37:12 0.000568598
7 *37:10 0.00109969
8 *37:8 0.000471643
9 *149:A1 *149:B1 0.000422715
10 *150:A *148:A 4.94474e-05
11 *150:A *150:D 0.000150827
12 *150:B *150:A 0.000545198
13 *150:B *37:12 4.31106e-05
14 *162:B *162:A 4.66108e-05
15 *29:10 *37:8 0.000294414
16 *29:12 *37:8 2.14129e-05
17 *29:12 *37:10 0.000514333
18 *29:12 *37:12 0.000343907
19 *29:38 *149:A1 0.000422715
*RES
1 *166:X *37:8 7.275 
2 *37:8 *37:10 5.97 
3 *37:10 *37:12 4.44 
4 *37:12 *150:A 12.21 
5 *37:12 *162:A 4.05 
6 *37:10 *147:A 12.675 
7 *37:8 *149:A1 7.5 
*END

*D_NET *38 0.0046118
*CONN
*I *149:A3 I *D sky130_fd_sc_hd__o31a_1
*I *148:A I *D sky130_fd_sc_hd__xnor2_1
*I *150:C I *D sky130_fd_sc_hd__or4_2
*I *167:X O *D sky130_fd_sc_hd__buf_1
*CAP
1 *149:A3 0.000144695
2 *148:A 0.000490158
3 *150:C 0
4 *167:X 0.000171003
5 *38:12 0.0014257
6 *38:6 0.00125124
7 *38:6 *149:B1 1.19928e-05
8 *150:A *148:A 4.94474e-05
9 *151:A_N *38:12 0.000428273
10 *163:A *148:A 0
11 *21:8 *148:A 9.28507e-05
12 *29:38 *149:A3 0.000264077
13 *29:38 *38:6 0.000232403
14 *29:49 *149:A3 4.99619e-05
*RES
1 *167:X *38:6 4.465 
2 *38:6 *38:12 20.68 
3 *38:12 *150:C 1.6 
4 *38:12 *148:A 9.31 
5 *38:6 *149:A3 4.465 
*END

*D_NET *39 0.00432829
*CONN
*I *149:B1 I *D sky130_fd_sc_hd__o31a_1
*I *150:D I *D sky130_fd_sc_hd__or4_2
*I *168:X O *D sky130_fd_sc_hd__clkbuf_1
*CAP
1 *149:B1 0.000441242
2 *150:D 0.000613309
3 *168:X 4.43494e-05
4 *39:8 0.0010989
5 *149:A1 *149:B1 0.000422715
6 *150:A *150:D 0.000150827
7 *150:B *150:D 0.000539689
8 *151:A_N *149:B1 8.48545e-05
9 *168:A *150:D 0
10 *169:A *150:D 0
11 *170:A *150:D 0
12 *29:12 *149:B1 0.000273695
13 *29:12 *150:D 0.000558818
14 *29:38 *149:B1 4.18336e-05
15 *29:49 *149:B1 4.60584e-05
16 *38:6 *149:B1 1.19928e-05
*RES
1 *168:X *39:8 4.05 
2 *39:8 *150:D 18.54 
3 *39:8 *149:B1 12.75 
*END

*D_NET *40 0.0065231
*CONN
*I *158:A1 I *D sky130_fd_sc_hd__o31ai_1
*I *154:A I *D sky130_fd_sc_hd__and2_1
*I *153:A I *D sky130_fd_sc_hd__nor2_1
*I *157:A I *D sky130_fd_sc_hd__or4_1
*I *169:X O *D sky130_fd_sc_hd__buf_1
*CAP
1 *158:A1 6.28731e-05
2 *154:A 0.000289373
3 *153:A 0.000540705
4 *157:A 0.000130835
5 *169:X 0.000465579
6 *40:42 0.000436152
7 *40:27 0.000706261
8 *40:8 0.000678064
9 *153:A *161:A 0
10 *153:A *41:10 0
11 *153:A *41:25 0
12 *154:A *156:A 0.000831817
13 *154:A *180:A 0
14 *157:A *157:B 5.16721e-05
15 *157:A *157:C 3.39536e-05
16 *157:A *158:B1 0.00016163
17 *157:A *161:A 1.1561e-05
18 *158:A1 *158:A2 2.91343e-05
19 *40:27 *158:B1 0.000271303
20 *40:42 *158:B1 3.74161e-05
21 *151:A_N *40:8 4.77757e-05
22 *152:A *40:27 0.00023635
23 *153:B *153:A 4.82863e-05
24 *154:B *153:A 7.21296e-06
25 *154:B *154:A 0.00100939
26 *155:B *154:A 0
27 *159:B *153:A 7.81954e-05
28 *161:B *153:A 0
29 *162:B *40:8 4.60123e-05
30 *163:B *158:A1 2.61974e-05
31 *163:B *40:8 0.000114166
32 *163:B *40:27 1.91597e-05
33 *163:B *40:42 6.52265e-05
34 *19:12 *153:A 0
35 *21:40 *157:A 6.13283e-05
36 *21:51 *153:A 1.7396e-05
37 *23:10 *153:A 0
38 *29:49 *154:A 8.08153e-06
*RES
1 *169:X *40:8 7.24 
2 *40:8 *157:A 8.915 
3 *40:8 *40:27 2.865 
4 *40:27 *153:A 14.57 
5 *40:27 *40:42 1.485 
6 *40:42 *154:A 17.54 
7 *40:42 *158:A1 2.755 
*END

*D_NET *41 0.00527445
*CONN
*I *156:A I *D sky130_fd_sc_hd__xnor2_1
*I *158:A2 I *D sky130_fd_sc_hd__o31ai_1
*I *157:B I *D sky130_fd_sc_hd__or4_1
*I *170:X O *D sky130_fd_sc_hd__buf_1
*CAP
1 *156:A 0.00031623
2 *158:A2 7.50458e-06
3 *157:B 0.000316283
4 *170:X 0.000858465
5 *41:25 0.000411583
6 *41:10 0.0012626
7 *157:B *157:C 1.54581e-05
8 *147:B *156:A 0.00024612
9 *153:A *41:10 0
10 *153:A *41:25 0
11 *154:A *156:A 0.000831817
12 *154:B *156:A 1.86911e-05
13 *154:B *41:25 5.53249e-06
14 *157:A *157:B 5.16721e-05
15 *158:A1 *158:A2 2.91343e-05
16 *159:A *157:B 0.000197167
17 *159:B *157:B 4.99619e-05
18 *159:B *41:25 5.72091e-05
19 *160:A *157:B 2.65814e-06
20 *163:B *158:A2 2.91343e-05
21 *164:A *156:A 4.82919e-05
22 *19:12 *156:A 0.000165068
23 *19:12 *41:10 0.000103974
24 *19:12 *41:25 0.000125533
25 *21:51 *41:25 2.7881e-05
26 *23:10 *156:A 0
27 *29:49 *156:A 9.64815e-05
*RES
1 *170:X *41:10 15.51 
2 *41:10 *157:B 9.075 
3 *41:10 *41:25 2.655 
4 *41:25 *158:A2 3.8775 
5 *41:25 *156:A 14.79 
*END

*D_NET *42 0.00408813
*CONN
*I *158:B1 I *D sky130_fd_sc_hd__o31ai_1
*I *157:C I *D sky130_fd_sc_hd__or4_1
*I *171:X O *D sky130_fd_sc_hd__clkbuf_1
*CAP
1 *158:B1 0.000162554
2 *157:C 6.5827e-05
3 *171:X 0.000470721
4 *42:10 0.000699102
5 *158:B1 *161:A 0.000245206
6 *42:10 *161:A 0.00110536
7 *153:B *42:10 0.000206824
8 *157:A *157:C 3.39536e-05
9 *157:A *158:B1 0.00016163
10 *157:B *157:C 1.54581e-05
11 *163:B *158:B1 0.000308719
12 *21:27 *158:B1 3.6637e-05
13 *21:27 *42:10 0.000249928
14 *21:40 *158:B1 1.74869e-05
15 *40:27 *158:B1 0.000271303
16 *40:42 *158:B1 3.74161e-05
*RES
1 *171:X *42:10 16.47 
2 *42:10 *157:C 4.77 
3 *42:10 *158:B1 9.375 
*END

*D_NET *43 0.00440601
*CONN
*I *161:A I *D sky130_fd_sc_hd__xor2_1
*I *172:X O *D sky130_fd_sc_hd__buf_1
*CAP
1 *161:A 0.00110992
2 *172:X 0.00110992
3 *151:A_N *161:A 0
4 *152:A *161:A 0
5 *153:A *161:A 0
6 *157:A *161:A 1.1561e-05
7 *158:B1 *161:A 0.000245206
8 *161:B *161:A 0.000824048
9 *42:10 *161:A 0.00110536
*RES
1 *172:X *161:A 30.09 
*END

*D_NET *44 0.000598642
*CONN
*I *180:A I *D sky130_fd_sc_hd__buf_2
*I *164:X O *D sky130_fd_sc_hd__clkbuf_1
*CAP
1 *180:A 0.000185824
2 *164:X 0.000185824
3 *154:A *180:A 0
4 *154:B *180:A 0
5 *155:B *180:A 9.37731e-05
6 *164:A *180:A 1.83756e-05
7 *173:A *180:A 0.000114846
*RES
1 *164:X *180:A 11.07 
*END
