*SPEF "ieee 1481-1999"
*DESIGN "counter"
*DATE "17:50:00 Saturday May 10, 2025"
*VENDOR "The OpenROAD Project"
*PROGRAM "OpenROAD"
*VERSION "b16bda7e82721d10566ff7e2b68f1ff0be9f9e38"
*DESIGN_FLOW "NAME_SCOPE LOCAL" "PIN_CAP NONE"
*DIVIDER /
*DELIMITER :
*BUS_DELIMITER []
*T_UNIT 1 NS
*C_UNIT 1 PF
*R_UNIT 1 OHM
*L_UNIT 1 HENRY

*NAME_MAP
*3 clk
*4 rst
*5 seg[0]
*6 seg[1]
*7 seg[2]
*8 seg[3]
*9 seg[4]
*10 seg[5]
*11 seg[6]
*12 _000_
*13 _001_
*14 _002_
*15 _003_
*16 _004_
*17 _005_
*18 _006_
*19 _007_
*20 _008_
*21 _009_
*22 _010_
*23 _011_
*24 _012_
*25 _013_
*26 _014_
*27 _015_
*28 _016_
*29 _017_
*30 _018_
*31 _019_
*32 _020_
*33 _021_
*34 _022_
*35 _023_
*36 _024_
*37 _025_
*38 _026_
*39 _027_
*40 _028_
*41 _029_
*42 _030_
*43 _031_
*44 _032_
*45 _033_
*46 _034_
*47 _035_
*48 _036_
*49 _037_
*50 _038_
*51 _039_
*52 _040_
*53 _041_
*54 _042_
*55 _043_
*56 _044_
*57 _045_
*58 _046_
*59 _047_
*60 _048_
*61 _049_
*62 _050_
*63 _051_
*64 _052_
*65 _053_
*66 _054_
*67 _055_
*68 _056_
*69 _057_
*70 _058_
*71 _059_
*72 _060_
*73 _061_
*74 _062_
*75 _063_
*76 _064_
*77 _065_
*78 _066_
*79 _067_
*80 _068_
*81 _069_
*82 _070_
*83 _071_
*84 _072_
*85 _073_
*86 _074_
*87 _075_
*88 _076_
*89 _077_
*90 _078_
*91 _079_
*92 _080_
*93 _081_
*94 _082_
*95 _083_
*96 _084_
*97 _085_
*98 _086_
*99 _087_
*100 _088_
*101 _089_
*102 _090_
*103 _091_
*104 _092_
*105 _093_
*106 _094_
*107 _095_
*108 _096_
*109 _097_
*110 _098_
*111 _099_
*112 _100_
*113 _101_
*114 _102_
*115 _103_
*116 _104_
*117 _105_
*118 _106_
*119 _107_
*120 _108_
*121 _109_
*122 _110_
*123 _111_
*124 _112_
*125 _113_
*126 _114_
*127 _115_
*128 _116_
*129 _117_
*130 _118_
*131 _119_
*132 _120_
*133 _121_
*134 _122_
*135 _123_
*136 _124_
*137 _125_
*138 _126_
*139 _127_
*140 _128_
*141 _129_
*142 _130_
*143 _131_
*144 _132_
*145 _133_
*146 _134_
*147 _135_
*148 _136_
*149 _137_
*150 _138_
*151 _139_
*152 _140_
*153 _141_
*154 _142_
*155 _143_
*156 _144_
*157 _145_
*158 _146_
*159 _147_
*160 _148_
*161 _149_
*162 _150_
*163 _151_
*164 _152_
*165 _153_
*166 _154_
*167 _155_
*168 _156_
*169 _157_
*170 _158_
*171 _159_
*172 _160_
*173 _161_
*174 _162_
*175 _163_
*176 _164_
*177 _165_
*178 _166_
*179 _167_
*180 _168_
*181 _169_
*182 _170_
*183 _171_
*184 _172_
*185 _173_
*186 _174_
*187 _175_
*188 _176_
*189 _177_
*190 _178_
*191 _179_
*192 _180_
*193 _181_
*194 clknet_0_clk
*195 clknet_2_0__leaf_clk
*196 clknet_2_1__leaf_clk
*197 clknet_2_2__leaf_clk
*198 clknet_2_3__leaf_clk
*199 count\[0\]
*200 count\[1\]
*201 count\[2\]
*202 count\[3\]
*203 count\[4\]
*204 net1
*205 net2
*206 net3
*207 net4
*208 net5
*209 net6
*210 net7
*211 net8
*212 one_second_counter\[0\]
*213 one_second_counter\[10\]
*214 one_second_counter\[11\]
*215 one_second_counter\[12\]
*216 one_second_counter\[13\]
*217 one_second_counter\[14\]
*218 one_second_counter\[15\]
*219 one_second_counter\[16\]
*220 one_second_counter\[17\]
*221 one_second_counter\[18\]
*222 one_second_counter\[19\]
*223 one_second_counter\[1\]
*224 one_second_counter\[20\]
*225 one_second_counter\[21\]
*226 one_second_counter\[22\]
*227 one_second_counter\[23\]
*228 one_second_counter\[24\]
*229 one_second_counter\[25\]
*230 one_second_counter\[26\]
*231 one_second_counter\[2\]
*232 one_second_counter\[3\]
*233 one_second_counter\[4\]
*234 one_second_counter\[5\]
*235 one_second_counter\[6\]
*236 one_second_counter\[7\]
*237 one_second_counter\[8\]
*238 one_second_counter\[9\]
*239 ANTENNA_1
*240 ANTENNA_10
*241 ANTENNA_11
*242 ANTENNA_12
*243 ANTENNA_13
*244 ANTENNA_14
*245 ANTENNA_15
*246 ANTENNA_2
*247 ANTENNA_3
*248 ANTENNA_4
*249 ANTENNA_5
*250 ANTENNA_6
*251 ANTENNA_7
*252 ANTENNA_8
*253 ANTENNA_9
*254 FILLER_0_0_10
*255 FILLER_0_0_109
*256 FILLER_0_0_113
*257 FILLER_0_0_125
*258 FILLER_0_0_137
*259 FILLER_0_0_141
*260 FILLER_0_0_153
*261 FILLER_0_0_165
*262 FILLER_0_0_169
*263 FILLER_0_0_182
*264 FILLER_0_0_194
*265 FILLER_0_0_202
*266 FILLER_0_0_212
*267 FILLER_0_0_22
*268 FILLER_0_0_225
*269 FILLER_0_0_239
*270 FILLER_0_0_29
*271 FILLER_0_0_3
*272 FILLER_0_0_41
*273 FILLER_0_0_53
*274 FILLER_0_0_57
*275 FILLER_0_0_69
*276 FILLER_0_0_81
*277 FILLER_0_0_85
*278 FILLER_0_0_97
*279 FILLER_0_10_105
*280 FILLER_0_10_141
*281 FILLER_0_10_15
*282 FILLER_0_10_153
*283 FILLER_0_10_165
*284 FILLER_0_10_177
*285 FILLER_0_10_189
*286 FILLER_0_10_195
*287 FILLER_0_10_197
*288 FILLER_0_10_203
*289 FILLER_0_10_207
*290 FILLER_0_10_219
*291 FILLER_0_10_27
*292 FILLER_0_10_3
*293 FILLER_0_10_56
*294 FILLER_0_10_68
*295 FILLER_0_10_76
*296 FILLER_0_10_82
*297 FILLER_0_10_85
*298 FILLER_0_10_97
*299 FILLER_0_11_108
*300 FILLER_0_11_113
*301 FILLER_0_11_12
*302 FILLER_0_11_125
*303 FILLER_0_11_137
*304 FILLER_0_11_149
*305 FILLER_0_11_161
*306 FILLER_0_11_167
*307 FILLER_0_11_169
*308 FILLER_0_11_190
*309 FILLER_0_11_202
*310 FILLER_0_11_214
*311 FILLER_0_11_222
*312 FILLER_0_11_225
*313 FILLER_0_11_237
*314 FILLER_0_11_243
*315 FILLER_0_11_3
*316 FILLER_0_11_40
*317 FILLER_0_11_52
*318 FILLER_0_11_57
*319 FILLER_0_11_63
*320 FILLER_0_11_69
*321 FILLER_0_11_84
*322 FILLER_0_11_9
*323 FILLER_0_11_96
*324 FILLER_0_12_109
*325 FILLER_0_12_12
*326 FILLER_0_12_121
*327 FILLER_0_12_133
*328 FILLER_0_12_139
*329 FILLER_0_12_141
*330 FILLER_0_12_153
*331 FILLER_0_12_165
*332 FILLER_0_12_173
*333 FILLER_0_12_18
*334 FILLER_0_12_182
*335 FILLER_0_12_194
*336 FILLER_0_12_197
*337 FILLER_0_12_209
*338 FILLER_0_12_21
*339 FILLER_0_12_221
*340 FILLER_0_12_233
*341 FILLER_0_12_3
*342 FILLER_0_12_59
*343 FILLER_0_12_71
*344 FILLER_0_12_83
*345 FILLER_0_12_85
*346 FILLER_0_12_97
*347 FILLER_0_13_106
*348 FILLER_0_13_134
*349 FILLER_0_13_146
*350 FILLER_0_13_15
*351 FILLER_0_13_158
*352 FILLER_0_13_166
*353 FILLER_0_13_169
*354 FILLER_0_13_177
*355 FILLER_0_13_188
*356 FILLER_0_13_200
*357 FILLER_0_13_212
*358 FILLER_0_13_221
*359 FILLER_0_13_23
*360 FILLER_0_13_232
*361 FILLER_0_13_239
*362 FILLER_0_13_243
*363 FILLER_0_13_27
*364 FILLER_0_13_3
*365 FILLER_0_13_39
*366 FILLER_0_13_43
*367 FILLER_0_13_55
*368 FILLER_0_13_57
*369 FILLER_0_13_69
*370 FILLER_0_13_81
*371 FILLER_0_13_87
*372 FILLER_0_13_99
*373 FILLER_0_14_109
*374 FILLER_0_14_121
*375 FILLER_0_14_133
*376 FILLER_0_14_139
*377 FILLER_0_14_141
*378 FILLER_0_14_15
*379 FILLER_0_14_153
*380 FILLER_0_14_171
*381 FILLER_0_14_183
*382 FILLER_0_14_191
*383 FILLER_0_14_195
*384 FILLER_0_14_200
*385 FILLER_0_14_212
*386 FILLER_0_14_220
*387 FILLER_0_14_27
*388 FILLER_0_14_3
*389 FILLER_0_14_54
*390 FILLER_0_14_66
*391 FILLER_0_14_78
*392 FILLER_0_14_85
*393 FILLER_0_14_97
*394 FILLER_0_15_104
*395 FILLER_0_15_116
*396 FILLER_0_15_124
*397 FILLER_0_15_13
*398 FILLER_0_15_131
*399 FILLER_0_15_143
*400 FILLER_0_15_155
*401 FILLER_0_15_163
*402 FILLER_0_15_169
*403 FILLER_0_15_181
*404 FILLER_0_15_193
*405 FILLER_0_15_205
*406 FILLER_0_15_217
*407 FILLER_0_15_223
*408 FILLER_0_15_225
*409 FILLER_0_15_237
*410 FILLER_0_15_243
*411 FILLER_0_15_25
*412 FILLER_0_15_3
*413 FILLER_0_15_37
*414 FILLER_0_15_49
*415 FILLER_0_15_80
*416 FILLER_0_15_9
*417 FILLER_0_15_92
*418 FILLER_0_16_109
*419 FILLER_0_16_117
*420 FILLER_0_16_122
*421 FILLER_0_16_134
*422 FILLER_0_16_141
*423 FILLER_0_16_15
*424 FILLER_0_16_153
*425 FILLER_0_16_165
*426 FILLER_0_16_177
*427 FILLER_0_16_189
*428 FILLER_0_16_195
*429 FILLER_0_16_197
*430 FILLER_0_16_209
*431 FILLER_0_16_221
*432 FILLER_0_16_233
*433 FILLER_0_16_241
*434 FILLER_0_16_27
*435 FILLER_0_16_29
*436 FILLER_0_16_3
*437 FILLER_0_16_50
*438 FILLER_0_16_62
*439 FILLER_0_16_74
*440 FILLER_0_16_82
*441 FILLER_0_16_85
*442 FILLER_0_16_97
*443 FILLER_0_17_103
*444 FILLER_0_17_111
*445 FILLER_0_17_113
*446 FILLER_0_17_142
*447 FILLER_0_17_15
*448 FILLER_0_17_154
*449 FILLER_0_17_166
*450 FILLER_0_17_169
*451 FILLER_0_17_182
*452 FILLER_0_17_190
*453 FILLER_0_17_198
*454 FILLER_0_17_210
*455 FILLER_0_17_222
*456 FILLER_0_17_225
*457 FILLER_0_17_233
*458 FILLER_0_17_242
*459 FILLER_0_17_3
*460 FILLER_0_17_42
*461 FILLER_0_17_54
*462 FILLER_0_17_57
*463 FILLER_0_17_63
*464 FILLER_0_17_67
*465 FILLER_0_17_79
*466 FILLER_0_17_9
*467 FILLER_0_17_91
*468 FILLER_0_17_99
*469 FILLER_0_18_105
*470 FILLER_0_18_117
*471 FILLER_0_18_125
*472 FILLER_0_18_132
*473 FILLER_0_18_141
*474 FILLER_0_18_15
*475 FILLER_0_18_166
*476 FILLER_0_18_178
*477 FILLER_0_18_190
*478 FILLER_0_18_197
*479 FILLER_0_18_205
*480 FILLER_0_18_216
*481 FILLER_0_18_224
*482 FILLER_0_18_230
*483 FILLER_0_18_242
*484 FILLER_0_18_27
*485 FILLER_0_18_29
*486 FILLER_0_18_3
*487 FILLER_0_18_41
*488 FILLER_0_18_53
*489 FILLER_0_18_62
*490 FILLER_0_18_74
*491 FILLER_0_18_82
*492 FILLER_0_18_93
*493 FILLER_0_19_103
*494 FILLER_0_19_111
*495 FILLER_0_19_113
*496 FILLER_0_19_15
*497 FILLER_0_19_157
*498 FILLER_0_19_165
*499 FILLER_0_19_169
*500 FILLER_0_19_178
*501 FILLER_0_19_190
*502 FILLER_0_19_194
*503 FILLER_0_19_218
*504 FILLER_0_19_225
*505 FILLER_0_19_23
*506 FILLER_0_19_237
*507 FILLER_0_19_29
*508 FILLER_0_19_3
*509 FILLER_0_19_41
*510 FILLER_0_19_53
*511 FILLER_0_19_67
*512 FILLER_0_19_75
*513 FILLER_0_19_80
*514 FILLER_0_19_92
*515 FILLER_0_1_105
*516 FILLER_0_1_111
*517 FILLER_0_1_113
*518 FILLER_0_1_119
*519 FILLER_0_1_126
*520 FILLER_0_1_138
*521 FILLER_0_1_150
*522 FILLER_0_1_162
*523 FILLER_0_1_172
*524 FILLER_0_1_184
*525 FILLER_0_1_196
*526 FILLER_0_1_208
*527 FILLER_0_1_21
*528 FILLER_0_1_216
*529 FILLER_0_1_225
*530 FILLER_0_1_237
*531 FILLER_0_1_243
*532 FILLER_0_1_3
*533 FILLER_0_1_57
*534 FILLER_0_1_69
*535 FILLER_0_1_81
*536 FILLER_0_1_9
*537 FILLER_0_1_93
*538 FILLER_0_20_102
*539 FILLER_0_20_114
*540 FILLER_0_20_126
*541 FILLER_0_20_138
*542 FILLER_0_20_141
*543 FILLER_0_20_156
*544 FILLER_0_20_164
*545 FILLER_0_20_191
*546 FILLER_0_20_195
*547 FILLER_0_20_197
*548 FILLER_0_20_209
*549 FILLER_0_20_221
*550 FILLER_0_20_229
*551 FILLER_0_20_237
*552 FILLER_0_20_243
*553 FILLER_0_20_29
*554 FILLER_0_20_3
*555 FILLER_0_20_41
*556 FILLER_0_20_49
*557 FILLER_0_20_57
*558 FILLER_0_20_69
*559 FILLER_0_20_81
*560 FILLER_0_20_90
*561 FILLER_0_21_101
*562 FILLER_0_21_109
*563 FILLER_0_21_113
*564 FILLER_0_21_117
*565 FILLER_0_21_123
*566 FILLER_0_21_135
*567 FILLER_0_21_141
*568 FILLER_0_21_153
*569 FILLER_0_21_165
*570 FILLER_0_21_169
*571 FILLER_0_21_174
*572 FILLER_0_21_178
*573 FILLER_0_21_182
*574 FILLER_0_21_194
*575 FILLER_0_21_206
*576 FILLER_0_21_218
*577 FILLER_0_21_225
*578 FILLER_0_21_233
*579 FILLER_0_21_24
*580 FILLER_0_21_36
*581 FILLER_0_21_45
*582 FILLER_0_21_53
*583 FILLER_0_21_57
*584 FILLER_0_21_90
*585 FILLER_0_22_100
*586 FILLER_0_22_112
*587 FILLER_0_22_124
*588 FILLER_0_22_132
*589 FILLER_0_22_136
*590 FILLER_0_22_141
*591 FILLER_0_22_15
*592 FILLER_0_22_153
*593 FILLER_0_22_165
*594 FILLER_0_22_177
*595 FILLER_0_22_189
*596 FILLER_0_22_195
*597 FILLER_0_22_200
*598 FILLER_0_22_212
*599 FILLER_0_22_224
*600 FILLER_0_22_230
*601 FILLER_0_22_234
*602 FILLER_0_22_241
*603 FILLER_0_22_27
*604 FILLER_0_22_29
*605 FILLER_0_22_3
*606 FILLER_0_22_41
*607 FILLER_0_22_77
*608 FILLER_0_22_83
*609 FILLER_0_22_88
*610 FILLER_0_23_103
*611 FILLER_0_23_111
*612 FILLER_0_23_113
*613 FILLER_0_23_125
*614 FILLER_0_23_135
*615 FILLER_0_23_139
*616 FILLER_0_23_15
*617 FILLER_0_23_151
*618 FILLER_0_23_163
*619 FILLER_0_23_167
*620 FILLER_0_23_169
*621 FILLER_0_23_181
*622 FILLER_0_23_193
*623 FILLER_0_23_213
*624 FILLER_0_23_221
*625 FILLER_0_23_228
*626 FILLER_0_23_240
*627 FILLER_0_23_27
*628 FILLER_0_23_3
*629 FILLER_0_23_39
*630 FILLER_0_23_49
*631 FILLER_0_23_55
*632 FILLER_0_23_57
*633 FILLER_0_23_61
*634 FILLER_0_23_67
*635 FILLER_0_23_79
*636 FILLER_0_23_91
*637 FILLER_0_23_99
*638 FILLER_0_24_101
*639 FILLER_0_24_105
*640 FILLER_0_24_117
*641 FILLER_0_24_129
*642 FILLER_0_24_133
*643 FILLER_0_24_139
*644 FILLER_0_24_15
*645 FILLER_0_24_152
*646 FILLER_0_24_164
*647 FILLER_0_24_176
*648 FILLER_0_24_184
*649 FILLER_0_24_194
*650 FILLER_0_24_197
*651 FILLER_0_24_201
*652 FILLER_0_24_209
*653 FILLER_0_24_221
*654 FILLER_0_24_233
*655 FILLER_0_24_237
*656 FILLER_0_24_241
*657 FILLER_0_24_27
*658 FILLER_0_24_29
*659 FILLER_0_24_3
*660 FILLER_0_24_41
*661 FILLER_0_24_53
*662 FILLER_0_24_61
*663 FILLER_0_24_67
*664 FILLER_0_24_71
*665 FILLER_0_24_78
*666 FILLER_0_24_85
*667 FILLER_0_24_97
*668 FILLER_0_25_102
*669 FILLER_0_25_11
*670 FILLER_0_25_110
*671 FILLER_0_25_113
*672 FILLER_0_25_125
*673 FILLER_0_25_136
*674 FILLER_0_25_148
*675 FILLER_0_25_160
*676 FILLER_0_25_169
*677 FILLER_0_25_181
*678 FILLER_0_25_193
*679 FILLER_0_25_205
*680 FILLER_0_25_211
*681 FILLER_0_25_219
*682 FILLER_0_25_223
*683 FILLER_0_25_225
*684 FILLER_0_25_237
*685 FILLER_0_25_3
*686 FILLER_0_25_33
*687 FILLER_0_25_45
*688 FILLER_0_25_52
*689 FILLER_0_25_57
*690 FILLER_0_25_62
*691 FILLER_0_25_69
*692 FILLER_0_26_109
*693 FILLER_0_26_124
*694 FILLER_0_26_132
*695 FILLER_0_26_137
*696 FILLER_0_26_141
*697 FILLER_0_26_15
*698 FILLER_0_26_153
*699 FILLER_0_26_165
*700 FILLER_0_26_177
*701 FILLER_0_26_189
*702 FILLER_0_26_195
*703 FILLER_0_26_197
*704 FILLER_0_26_209
*705 FILLER_0_26_228
*706 FILLER_0_26_232
*707 FILLER_0_26_236
*708 FILLER_0_26_27
*709 FILLER_0_26_29
*710 FILLER_0_26_3
*711 FILLER_0_26_41
*712 FILLER_0_26_53
*713 FILLER_0_26_65
*714 FILLER_0_26_69
*715 FILLER_0_26_73
*716 FILLER_0_26_81
*717 FILLER_0_26_85
*718 FILLER_0_26_97
*719 FILLER_0_27_107
*720 FILLER_0_27_111
*721 FILLER_0_27_113
*722 FILLER_0_27_121
*723 FILLER_0_27_146
*724 FILLER_0_27_158
*725 FILLER_0_27_166
*726 FILLER_0_27_169
*727 FILLER_0_27_181
*728 FILLER_0_27_193
*729 FILLER_0_27_20
*730 FILLER_0_27_202
*731 FILLER_0_27_214
*732 FILLER_0_27_222
*733 FILLER_0_27_225
*734 FILLER_0_27_237
*735 FILLER_0_27_243
*736 FILLER_0_27_3
*737 FILLER_0_27_32
*738 FILLER_0_27_44
*739 FILLER_0_27_57
*740 FILLER_0_27_69
*741 FILLER_0_27_75
*742 FILLER_0_27_84
*743 FILLER_0_27_96
*744 FILLER_0_28_106
*745 FILLER_0_28_118
*746 FILLER_0_28_130
*747 FILLER_0_28_138
*748 FILLER_0_28_141
*749 FILLER_0_28_15
*750 FILLER_0_28_153
*751 FILLER_0_28_165
*752 FILLER_0_28_177
*753 FILLER_0_28_189
*754 FILLER_0_28_195
*755 FILLER_0_28_197
*756 FILLER_0_28_219
*757 FILLER_0_28_241
*758 FILLER_0_28_27
*759 FILLER_0_28_29
*760 FILLER_0_28_3
*761 FILLER_0_28_41
*762 FILLER_0_28_53
*763 FILLER_0_28_62
*764 FILLER_0_28_74
*765 FILLER_0_28_82
*766 FILLER_0_28_85
*767 FILLER_0_28_94
*768 FILLER_0_29_103
*769 FILLER_0_29_111
*770 FILLER_0_29_119
*771 FILLER_0_29_131
*772 FILLER_0_29_143
*773 FILLER_0_29_150
*774 FILLER_0_29_162
*775 FILLER_0_29_169
*776 FILLER_0_29_181
*777 FILLER_0_29_193
*778 FILLER_0_29_197
*779 FILLER_0_29_20
*780 FILLER_0_29_208
*781 FILLER_0_29_220
*782 FILLER_0_29_225
*783 FILLER_0_29_233
*784 FILLER_0_29_241
*785 FILLER_0_29_3
*786 FILLER_0_29_32
*787 FILLER_0_29_44
*788 FILLER_0_29_50
*789 FILLER_0_29_57
*790 FILLER_0_29_69
*791 FILLER_0_29_77
*792 FILLER_0_2_109
*793 FILLER_0_2_121
*794 FILLER_0_2_133
*795 FILLER_0_2_139
*796 FILLER_0_2_141
*797 FILLER_0_2_15
*798 FILLER_0_2_153
*799 FILLER_0_2_177
*800 FILLER_0_2_189
*801 FILLER_0_2_195
*802 FILLER_0_2_197
*803 FILLER_0_2_205
*804 FILLER_0_2_230
*805 FILLER_0_2_234
*806 FILLER_0_2_25
*807 FILLER_0_2_29
*808 FILLER_0_2_3
*809 FILLER_0_2_41
*810 FILLER_0_2_53
*811 FILLER_0_2_65
*812 FILLER_0_2_77
*813 FILLER_0_2_83
*814 FILLER_0_2_85
*815 FILLER_0_2_97
*816 FILLER_0_30_109
*817 FILLER_0_30_119
*818 FILLER_0_30_131
*819 FILLER_0_30_139
*820 FILLER_0_30_141
*821 FILLER_0_30_15
*822 FILLER_0_30_153
*823 FILLER_0_30_165
*824 FILLER_0_30_177
*825 FILLER_0_30_189
*826 FILLER_0_30_195
*827 FILLER_0_30_197
*828 FILLER_0_30_209
*829 FILLER_0_30_221
*830 FILLER_0_30_229
*831 FILLER_0_30_232
*832 FILLER_0_30_236
*833 FILLER_0_30_27
*834 FILLER_0_30_29
*835 FILLER_0_30_3
*836 FILLER_0_30_35
*837 FILLER_0_30_39
*838 FILLER_0_30_51
*839 FILLER_0_30_63
*840 FILLER_0_30_70
*841 FILLER_0_30_82
*842 FILLER_0_30_85
*843 FILLER_0_30_97
*844 FILLER_0_31_105
*845 FILLER_0_31_111
*846 FILLER_0_31_113
*847 FILLER_0_31_125
*848 FILLER_0_31_133
*849 FILLER_0_31_139
*850 FILLER_0_31_148
*851 FILLER_0_31_15
*852 FILLER_0_31_160
*853 FILLER_0_31_167
*854 FILLER_0_31_169
*855 FILLER_0_31_199
*856 FILLER_0_31_211
*857 FILLER_0_31_223
*858 FILLER_0_31_225
*859 FILLER_0_31_237
*860 FILLER_0_31_243
*861 FILLER_0_31_27
*862 FILLER_0_31_3
*863 FILLER_0_31_39
*864 FILLER_0_31_51
*865 FILLER_0_31_55
*866 FILLER_0_31_57
*867 FILLER_0_31_69
*868 FILLER_0_31_81
*869 FILLER_0_31_93
*870 FILLER_0_32_103
*871 FILLER_0_32_112
*872 FILLER_0_32_124
*873 FILLER_0_32_136
*874 FILLER_0_32_141
*875 FILLER_0_32_149
*876 FILLER_0_32_15
*877 FILLER_0_32_154
*878 FILLER_0_32_166
*879 FILLER_0_32_178
*880 FILLER_0_32_190
*881 FILLER_0_32_197
*882 FILLER_0_32_209
*883 FILLER_0_32_217
*884 FILLER_0_32_226
*885 FILLER_0_32_238
*886 FILLER_0_32_27
*887 FILLER_0_32_29
*888 FILLER_0_32_3
*889 FILLER_0_32_41
*890 FILLER_0_32_53
*891 FILLER_0_32_65
*892 FILLER_0_32_77
*893 FILLER_0_32_83
*894 FILLER_0_32_85
*895 FILLER_0_32_97
*896 FILLER_0_33_103
*897 FILLER_0_33_111
*898 FILLER_0_33_113
*899 FILLER_0_33_125
*900 FILLER_0_33_137
*901 FILLER_0_33_143
*902 FILLER_0_33_149
*903 FILLER_0_33_15
*904 FILLER_0_33_161
*905 FILLER_0_33_167
*906 FILLER_0_33_169
*907 FILLER_0_33_181
*908 FILLER_0_33_185
*909 FILLER_0_33_197
*910 FILLER_0_33_209
*911 FILLER_0_33_221
*912 FILLER_0_33_225
*913 FILLER_0_33_237
*914 FILLER_0_33_27
*915 FILLER_0_33_3
*916 FILLER_0_33_39
*917 FILLER_0_33_51
*918 FILLER_0_33_55
*919 FILLER_0_33_57
*920 FILLER_0_33_63
*921 FILLER_0_33_67
*922 FILLER_0_33_79
*923 FILLER_0_33_91
*924 FILLER_0_34_109
*925 FILLER_0_34_121
*926 FILLER_0_34_133
*927 FILLER_0_34_139
*928 FILLER_0_34_141
*929 FILLER_0_34_15
*930 FILLER_0_34_153
*931 FILLER_0_34_164
*932 FILLER_0_34_176
*933 FILLER_0_34_188
*934 FILLER_0_34_197
*935 FILLER_0_34_209
*936 FILLER_0_34_215
*937 FILLER_0_34_227
*938 FILLER_0_34_239
*939 FILLER_0_34_243
*940 FILLER_0_34_27
*941 FILLER_0_34_29
*942 FILLER_0_34_3
*943 FILLER_0_34_41
*944 FILLER_0_34_53
*945 FILLER_0_34_65
*946 FILLER_0_34_77
*947 FILLER_0_34_83
*948 FILLER_0_34_85
*949 FILLER_0_34_97
*950 FILLER_0_35_103
*951 FILLER_0_35_111
*952 FILLER_0_35_113
*953 FILLER_0_35_121
*954 FILLER_0_35_133
*955 FILLER_0_35_145
*956 FILLER_0_35_15
*957 FILLER_0_35_157
*958 FILLER_0_35_165
*959 FILLER_0_35_169
*960 FILLER_0_35_180
*961 FILLER_0_35_184
*962 FILLER_0_35_196
*963 FILLER_0_35_208
*964 FILLER_0_35_220
*965 FILLER_0_35_225
*966 FILLER_0_35_230
*967 FILLER_0_35_242
*968 FILLER_0_35_27
*969 FILLER_0_35_3
*970 FILLER_0_35_39
*971 FILLER_0_35_47
*972 FILLER_0_35_57
*973 FILLER_0_35_80
*974 FILLER_0_35_84
*975 FILLER_0_35_96
*976 FILLER_0_36_109
*977 FILLER_0_36_113
*978 FILLER_0_36_121
*979 FILLER_0_36_130
*980 FILLER_0_36_138
*981 FILLER_0_36_141
*982 FILLER_0_36_15
*983 FILLER_0_36_153
*984 FILLER_0_36_165
*985 FILLER_0_36_169
*986 FILLER_0_36_181
*987 FILLER_0_36_193
*988 FILLER_0_36_202
*989 FILLER_0_36_214
*990 FILLER_0_36_222
*991 FILLER_0_36_225
*992 FILLER_0_36_237
*993 FILLER_0_36_27
*994 FILLER_0_36_29
*995 FILLER_0_36_3
*996 FILLER_0_36_42
*997 FILLER_0_36_54
*998 FILLER_0_36_57
*999 FILLER_0_36_69
*1000 FILLER_0_36_81
*1001 FILLER_0_36_85
*1002 FILLER_0_36_97
*1003 FILLER_0_3_101
*1004 FILLER_0_3_110
*1005 FILLER_0_3_113
*1006 FILLER_0_3_117
*1007 FILLER_0_3_126
*1008 FILLER_0_3_138
*1009 FILLER_0_3_15
*1010 FILLER_0_3_150
*1011 FILLER_0_3_162
*1012 FILLER_0_3_169
*1013 FILLER_0_3_174
*1014 FILLER_0_3_186
*1015 FILLER_0_3_19
*1016 FILLER_0_3_198
*1017 FILLER_0_3_210
*1018 FILLER_0_3_218
*1019 FILLER_0_3_22
*1020 FILLER_0_3_225
*1021 FILLER_0_3_229
*1022 FILLER_0_3_241
*1023 FILLER_0_3_29
*1024 FILLER_0_3_3
*1025 FILLER_0_3_41
*1026 FILLER_0_3_53
*1027 FILLER_0_3_57
*1028 FILLER_0_3_65
*1029 FILLER_0_3_72
*1030 FILLER_0_3_84
*1031 FILLER_0_3_93
*1032 FILLER_0_4_103
*1033 FILLER_0_4_11
*1034 FILLER_0_4_115
*1035 FILLER_0_4_121
*1036 FILLER_0_4_128
*1037 FILLER_0_4_141
*1038 FILLER_0_4_153
*1039 FILLER_0_4_16
*1040 FILLER_0_4_165
*1041 FILLER_0_4_177
*1042 FILLER_0_4_185
*1043 FILLER_0_4_192
*1044 FILLER_0_4_197
*1045 FILLER_0_4_209
*1046 FILLER_0_4_21
*1047 FILLER_0_4_221
*1048 FILLER_0_4_227
*1049 FILLER_0_4_231
*1050 FILLER_0_4_243
*1051 FILLER_0_4_27
*1052 FILLER_0_4_29
*1053 FILLER_0_4_3
*1054 FILLER_0_4_41
*1055 FILLER_0_4_53
*1056 FILLER_0_4_65
*1057 FILLER_0_4_77
*1058 FILLER_0_4_83
*1059 FILLER_0_4_85
*1060 FILLER_0_5_105
*1061 FILLER_0_5_111
*1062 FILLER_0_5_113
*1063 FILLER_0_5_125
*1064 FILLER_0_5_137
*1065 FILLER_0_5_149
*1066 FILLER_0_5_15
*1067 FILLER_0_5_161
*1068 FILLER_0_5_167
*1069 FILLER_0_5_169
*1070 FILLER_0_5_181
*1071 FILLER_0_5_207
*1072 FILLER_0_5_219
*1073 FILLER_0_5_223
*1074 FILLER_0_5_225
*1075 FILLER_0_5_237
*1076 FILLER_0_5_243
*1077 FILLER_0_5_27
*1078 FILLER_0_5_3
*1079 FILLER_0_5_39
*1080 FILLER_0_5_51
*1081 FILLER_0_5_55
*1082 FILLER_0_5_57
*1083 FILLER_0_5_69
*1084 FILLER_0_5_81
*1085 FILLER_0_5_93
*1086 FILLER_0_6_105
*1087 FILLER_0_6_135
*1088 FILLER_0_6_139
*1089 FILLER_0_6_141
*1090 FILLER_0_6_15
*1091 FILLER_0_6_153
*1092 FILLER_0_6_165
*1093 FILLER_0_6_170
*1094 FILLER_0_6_193
*1095 FILLER_0_6_202
*1096 FILLER_0_6_214
*1097 FILLER_0_6_226
*1098 FILLER_0_6_234
*1099 FILLER_0_6_239
*1100 FILLER_0_6_27
*1101 FILLER_0_6_29
*1102 FILLER_0_6_3
*1103 FILLER_0_6_41
*1104 FILLER_0_6_53
*1105 FILLER_0_6_65
*1106 FILLER_0_6_77
*1107 FILLER_0_6_83
*1108 FILLER_0_6_85
*1109 FILLER_0_6_97
*1110 FILLER_0_7_101
*1111 FILLER_0_7_109
*1112 FILLER_0_7_119
*1113 FILLER_0_7_131
*1114 FILLER_0_7_137
*1115 FILLER_0_7_144
*1116 FILLER_0_7_15
*1117 FILLER_0_7_156
*1118 FILLER_0_7_163
*1119 FILLER_0_7_167
*1120 FILLER_0_7_169
*1121 FILLER_0_7_181
*1122 FILLER_0_7_196
*1123 FILLER_0_7_208
*1124 FILLER_0_7_220
*1125 FILLER_0_7_225
*1126 FILLER_0_7_23
*1127 FILLER_0_7_237
*1128 FILLER_0_7_243
*1129 FILLER_0_7_27
*1130 FILLER_0_7_3
*1131 FILLER_0_7_31
*1132 FILLER_0_7_43
*1133 FILLER_0_7_55
*1134 FILLER_0_7_57
*1135 FILLER_0_7_69
*1136 FILLER_0_7_81
*1137 FILLER_0_7_93
*1138 FILLER_0_8_101
*1139 FILLER_0_8_113
*1140 FILLER_0_8_125
*1141 FILLER_0_8_137
*1142 FILLER_0_8_144
*1143 FILLER_0_8_15
*1144 FILLER_0_8_150
*1145 FILLER_0_8_172
*1146 FILLER_0_8_182
*1147 FILLER_0_8_188
*1148 FILLER_0_8_197
*1149 FILLER_0_8_209
*1150 FILLER_0_8_221
*1151 FILLER_0_8_233
*1152 FILLER_0_8_241
*1153 FILLER_0_8_27
*1154 FILLER_0_8_29
*1155 FILLER_0_8_3
*1156 FILLER_0_8_34
*1157 FILLER_0_8_56
*1158 FILLER_0_8_69
*1159 FILLER_0_8_81
*1160 FILLER_0_9_102
*1161 FILLER_0_9_136
*1162 FILLER_0_9_148
*1163 FILLER_0_9_15
*1164 FILLER_0_9_160
*1165 FILLER_0_9_176
*1166 FILLER_0_9_188
*1167 FILLER_0_9_200
*1168 FILLER_0_9_212
*1169 FILLER_0_9_225
*1170 FILLER_0_9_233
*1171 FILLER_0_9_241
*1172 FILLER_0_9_27
*1173 FILLER_0_9_3
*1174 FILLER_0_9_39
*1175 FILLER_0_9_51
*1176 FILLER_0_9_55
*1177 FILLER_0_9_57
*1178 FILLER_0_9_69
*1179 FILLER_0_9_81
*1180 FILLER_0_9_85
*1181 FILLER_0_9_89
*1182 FILLER_0_9_97
*1183 PHY_EDGE_ROW_0_Left_37
*1184 PHY_EDGE_ROW_0_Right_0
*1185 PHY_EDGE_ROW_10_Left_47
*1186 PHY_EDGE_ROW_10_Right_10
*1187 PHY_EDGE_ROW_11_Left_48
*1188 PHY_EDGE_ROW_11_Right_11
*1189 PHY_EDGE_ROW_12_Left_49
*1190 PHY_EDGE_ROW_12_Right_12
*1191 PHY_EDGE_ROW_13_Left_50
*1192 PHY_EDGE_ROW_13_Right_13
*1193 PHY_EDGE_ROW_14_Left_51
*1194 PHY_EDGE_ROW_14_Right_14
*1195 PHY_EDGE_ROW_15_Left_52
*1196 PHY_EDGE_ROW_15_Right_15
*1197 PHY_EDGE_ROW_16_Left_53
*1198 PHY_EDGE_ROW_16_Right_16
*1199 PHY_EDGE_ROW_17_Left_54
*1200 PHY_EDGE_ROW_17_Right_17
*1201 PHY_EDGE_ROW_18_Left_55
*1202 PHY_EDGE_ROW_18_Right_18
*1203 PHY_EDGE_ROW_19_Left_56
*1204 PHY_EDGE_ROW_19_Right_19
*1205 PHY_EDGE_ROW_1_Left_38
*1206 PHY_EDGE_ROW_1_Right_1
*1207 PHY_EDGE_ROW_20_Left_57
*1208 PHY_EDGE_ROW_20_Right_20
*1209 PHY_EDGE_ROW_21_Left_58
*1210 PHY_EDGE_ROW_21_Right_21
*1211 PHY_EDGE_ROW_22_Left_59
*1212 PHY_EDGE_ROW_22_Right_22
*1213 PHY_EDGE_ROW_23_Left_60
*1214 PHY_EDGE_ROW_23_Right_23
*1215 PHY_EDGE_ROW_24_Left_61
*1216 PHY_EDGE_ROW_24_Right_24
*1217 PHY_EDGE_ROW_25_Left_62
*1218 PHY_EDGE_ROW_25_Right_25
*1219 PHY_EDGE_ROW_26_Left_63
*1220 PHY_EDGE_ROW_26_Right_26
*1221 PHY_EDGE_ROW_27_Left_64
*1222 PHY_EDGE_ROW_27_Right_27
*1223 PHY_EDGE_ROW_28_Left_65
*1224 PHY_EDGE_ROW_28_Right_28
*1225 PHY_EDGE_ROW_29_Left_66
*1226 PHY_EDGE_ROW_29_Right_29
*1227 PHY_EDGE_ROW_2_Left_39
*1228 PHY_EDGE_ROW_2_Right_2
*1229 PHY_EDGE_ROW_30_Left_67
*1230 PHY_EDGE_ROW_30_Right_30
*1231 PHY_EDGE_ROW_31_Left_68
*1232 PHY_EDGE_ROW_31_Right_31
*1233 PHY_EDGE_ROW_32_Left_69
*1234 PHY_EDGE_ROW_32_Right_32
*1235 PHY_EDGE_ROW_33_Left_70
*1236 PHY_EDGE_ROW_33_Right_33
*1237 PHY_EDGE_ROW_34_Left_71
*1238 PHY_EDGE_ROW_34_Right_34
*1239 PHY_EDGE_ROW_35_Left_72
*1240 PHY_EDGE_ROW_35_Right_35
*1241 PHY_EDGE_ROW_36_Left_73
*1242 PHY_EDGE_ROW_36_Right_36
*1243 PHY_EDGE_ROW_3_Left_40
*1244 PHY_EDGE_ROW_3_Right_3
*1245 PHY_EDGE_ROW_4_Left_41
*1246 PHY_EDGE_ROW_4_Right_4
*1247 PHY_EDGE_ROW_5_Left_42
*1248 PHY_EDGE_ROW_5_Right_5
*1249 PHY_EDGE_ROW_6_Left_43
*1250 PHY_EDGE_ROW_6_Right_6
*1251 PHY_EDGE_ROW_7_Left_44
*1252 PHY_EDGE_ROW_7_Right_7
*1253 PHY_EDGE_ROW_8_Left_45
*1254 PHY_EDGE_ROW_8_Right_8
*1255 PHY_EDGE_ROW_9_Left_46
*1256 PHY_EDGE_ROW_9_Right_9
*1257 TAP_TAPCELL_ROW_0_74
*1258 TAP_TAPCELL_ROW_0_75
*1259 TAP_TAPCELL_ROW_0_76
*1260 TAP_TAPCELL_ROW_0_77
*1261 TAP_TAPCELL_ROW_0_78
*1262 TAP_TAPCELL_ROW_0_79
*1263 TAP_TAPCELL_ROW_0_80
*1264 TAP_TAPCELL_ROW_0_81
*1265 TAP_TAPCELL_ROW_10_118
*1266 TAP_TAPCELL_ROW_10_119
*1267 TAP_TAPCELL_ROW_10_120
*1268 TAP_TAPCELL_ROW_10_121
*1269 TAP_TAPCELL_ROW_11_122
*1270 TAP_TAPCELL_ROW_11_123
*1271 TAP_TAPCELL_ROW_11_124
*1272 TAP_TAPCELL_ROW_11_125
*1273 TAP_TAPCELL_ROW_12_126
*1274 TAP_TAPCELL_ROW_12_127
*1275 TAP_TAPCELL_ROW_12_128
*1276 TAP_TAPCELL_ROW_12_129
*1277 TAP_TAPCELL_ROW_13_130
*1278 TAP_TAPCELL_ROW_13_131
*1279 TAP_TAPCELL_ROW_13_132
*1280 TAP_TAPCELL_ROW_13_133
*1281 TAP_TAPCELL_ROW_14_134
*1282 TAP_TAPCELL_ROW_14_135
*1283 TAP_TAPCELL_ROW_14_136
*1284 TAP_TAPCELL_ROW_14_137
*1285 TAP_TAPCELL_ROW_15_138
*1286 TAP_TAPCELL_ROW_15_139
*1287 TAP_TAPCELL_ROW_15_140
*1288 TAP_TAPCELL_ROW_15_141
*1289 TAP_TAPCELL_ROW_16_142
*1290 TAP_TAPCELL_ROW_16_143
*1291 TAP_TAPCELL_ROW_16_144
*1292 TAP_TAPCELL_ROW_16_145
*1293 TAP_TAPCELL_ROW_17_146
*1294 TAP_TAPCELL_ROW_17_147
*1295 TAP_TAPCELL_ROW_17_148
*1296 TAP_TAPCELL_ROW_17_149
*1297 TAP_TAPCELL_ROW_18_150
*1298 TAP_TAPCELL_ROW_18_151
*1299 TAP_TAPCELL_ROW_18_152
*1300 TAP_TAPCELL_ROW_18_153
*1301 TAP_TAPCELL_ROW_19_154
*1302 TAP_TAPCELL_ROW_19_155
*1303 TAP_TAPCELL_ROW_19_156
*1304 TAP_TAPCELL_ROW_19_157
*1305 TAP_TAPCELL_ROW_1_82
*1306 TAP_TAPCELL_ROW_1_83
*1307 TAP_TAPCELL_ROW_1_84
*1308 TAP_TAPCELL_ROW_1_85
*1309 TAP_TAPCELL_ROW_20_158
*1310 TAP_TAPCELL_ROW_20_159
*1311 TAP_TAPCELL_ROW_20_160
*1312 TAP_TAPCELL_ROW_20_161
*1313 TAP_TAPCELL_ROW_21_162
*1314 TAP_TAPCELL_ROW_21_163
*1315 TAP_TAPCELL_ROW_21_164
*1316 TAP_TAPCELL_ROW_21_165
*1317 TAP_TAPCELL_ROW_22_166
*1318 TAP_TAPCELL_ROW_22_167
*1319 TAP_TAPCELL_ROW_22_168
*1320 TAP_TAPCELL_ROW_22_169
*1321 TAP_TAPCELL_ROW_23_170
*1322 TAP_TAPCELL_ROW_23_171
*1323 TAP_TAPCELL_ROW_23_172
*1324 TAP_TAPCELL_ROW_23_173
*1325 TAP_TAPCELL_ROW_24_174
*1326 TAP_TAPCELL_ROW_24_175
*1327 TAP_TAPCELL_ROW_24_176
*1328 TAP_TAPCELL_ROW_24_177
*1329 TAP_TAPCELL_ROW_25_178
*1330 TAP_TAPCELL_ROW_25_179
*1331 TAP_TAPCELL_ROW_25_180
*1332 TAP_TAPCELL_ROW_25_181
*1333 TAP_TAPCELL_ROW_26_182
*1334 TAP_TAPCELL_ROW_26_183
*1335 TAP_TAPCELL_ROW_26_184
*1336 TAP_TAPCELL_ROW_26_185
*1337 TAP_TAPCELL_ROW_27_186
*1338 TAP_TAPCELL_ROW_27_187
*1339 TAP_TAPCELL_ROW_27_188
*1340 TAP_TAPCELL_ROW_27_189
*1341 TAP_TAPCELL_ROW_28_190
*1342 TAP_TAPCELL_ROW_28_191
*1343 TAP_TAPCELL_ROW_28_192
*1344 TAP_TAPCELL_ROW_28_193
*1345 TAP_TAPCELL_ROW_29_194
*1346 TAP_TAPCELL_ROW_29_195
*1347 TAP_TAPCELL_ROW_29_196
*1348 TAP_TAPCELL_ROW_29_197
*1349 TAP_TAPCELL_ROW_2_86
*1350 TAP_TAPCELL_ROW_2_87
*1351 TAP_TAPCELL_ROW_2_88
*1352 TAP_TAPCELL_ROW_2_89
*1353 TAP_TAPCELL_ROW_30_198
*1354 TAP_TAPCELL_ROW_30_199
*1355 TAP_TAPCELL_ROW_30_200
*1356 TAP_TAPCELL_ROW_30_201
*1357 TAP_TAPCELL_ROW_31_202
*1358 TAP_TAPCELL_ROW_31_203
*1359 TAP_TAPCELL_ROW_31_204
*1360 TAP_TAPCELL_ROW_31_205
*1361 TAP_TAPCELL_ROW_32_206
*1362 TAP_TAPCELL_ROW_32_207
*1363 TAP_TAPCELL_ROW_32_208
*1364 TAP_TAPCELL_ROW_32_209
*1365 TAP_TAPCELL_ROW_33_210
*1366 TAP_TAPCELL_ROW_33_211
*1367 TAP_TAPCELL_ROW_33_212
*1368 TAP_TAPCELL_ROW_33_213
*1369 TAP_TAPCELL_ROW_34_214
*1370 TAP_TAPCELL_ROW_34_215
*1371 TAP_TAPCELL_ROW_34_216
*1372 TAP_TAPCELL_ROW_34_217
*1373 TAP_TAPCELL_ROW_35_218
*1374 TAP_TAPCELL_ROW_35_219
*1375 TAP_TAPCELL_ROW_35_220
*1376 TAP_TAPCELL_ROW_35_221
*1377 TAP_TAPCELL_ROW_36_222
*1378 TAP_TAPCELL_ROW_36_223
*1379 TAP_TAPCELL_ROW_36_224
*1380 TAP_TAPCELL_ROW_36_225
*1381 TAP_TAPCELL_ROW_36_226
*1382 TAP_TAPCELL_ROW_36_227
*1383 TAP_TAPCELL_ROW_36_228
*1384 TAP_TAPCELL_ROW_36_229
*1385 TAP_TAPCELL_ROW_3_90
*1386 TAP_TAPCELL_ROW_3_91
*1387 TAP_TAPCELL_ROW_3_92
*1388 TAP_TAPCELL_ROW_3_93
*1389 TAP_TAPCELL_ROW_4_94
*1390 TAP_TAPCELL_ROW_4_95
*1391 TAP_TAPCELL_ROW_4_96
*1392 TAP_TAPCELL_ROW_4_97
*1393 TAP_TAPCELL_ROW_5_100
*1394 TAP_TAPCELL_ROW_5_101
*1395 TAP_TAPCELL_ROW_5_98
*1396 TAP_TAPCELL_ROW_5_99
*1397 TAP_TAPCELL_ROW_6_102
*1398 TAP_TAPCELL_ROW_6_103
*1399 TAP_TAPCELL_ROW_6_104
*1400 TAP_TAPCELL_ROW_6_105
*1401 TAP_TAPCELL_ROW_7_106
*1402 TAP_TAPCELL_ROW_7_107
*1403 TAP_TAPCELL_ROW_7_108
*1404 TAP_TAPCELL_ROW_7_109
*1405 TAP_TAPCELL_ROW_8_110
*1406 TAP_TAPCELL_ROW_8_111
*1407 TAP_TAPCELL_ROW_8_112
*1408 TAP_TAPCELL_ROW_8_113
*1409 TAP_TAPCELL_ROW_9_114
*1410 TAP_TAPCELL_ROW_9_115
*1411 TAP_TAPCELL_ROW_9_116
*1412 TAP_TAPCELL_ROW_9_117
*1413 _182_
*1414 _183_
*1415 _184_
*1416 _185_
*1417 _186_
*1418 _187_
*1419 _188_
*1420 _189_
*1421 _190_
*1422 _191_
*1423 _192_
*1424 _193_
*1425 _194_
*1426 _195_
*1427 _196_
*1428 _197_
*1429 _198_
*1430 _199_
*1431 _200_
*1432 _201_
*1433 _202_
*1434 _203_
*1435 _204_
*1436 _205_
*1437 _206_
*1438 _207_
*1439 _208_
*1440 _209_
*1441 _210_
*1442 _211_
*1443 _212_
*1444 _213_
*1445 _214_
*1446 _215_
*1447 _216_
*1448 _217_
*1449 _218_
*1450 _219_
*1451 _220_
*1452 _221_
*1453 _222_
*1454 _223_
*1455 _224_
*1456 _225_
*1457 _226_
*1458 _227_
*1459 _228_
*1460 _229_
*1461 _230_
*1462 _231_
*1463 _232_
*1464 _233_
*1465 _234_