*SPEF "ieee 1481-1999"
*DESIGN "project1"
*DATE "12:25:27 Saturday April 26, 2025"
*VENDOR "The OpenROAD Project"
*PROGRAM "OpenROAD"
*VERSION "b16bda7e82721d10566ff7e2b68f1ff0be9f9e38"
*DESIGN_FLOW "NAME_SCOPE LOCAL" "PIN_CAP NONE"
*DIVIDER /
*DELIMITER :
*BUS_DELIMITER []
*T_UNIT 1 NS
*C_UNIT 1 PF
*R_UNIT 1 OHM
*L_UNIT 1 HENRY

*NAME_MAP
*3 in1[0]
*4 in1[1]
*5 in1[2]
*6 in1[3]
*7 in1[4]
*8 in1[5]
*9 in1[6]
*10 in1[7]
*11 out1[0]
*12 out1[1]
*13 out1[2]
*14 out1[3]
*15 out1[4]
*16 out1[5]
*17 out1[6]
*18 out1[7]
*19 _00_
*20 _01_
*21 _02_
*22 _03_
*23 _04_
*24 _05_
*25 _06_
*26 _07_
*27 _08_
*28 _09_
*29 net1
*30 net10
*31 net11
*32 net12
*33 net13
*34 net14
*35 net15
*36 net16
*37 net2
*38 net3
*39 net4
*40 net5
*41 net6
*42 net7
*43 net8
*44 net9
*45 FILLER_0_0_21
*46 FILLER_0_0_27
*47 FILLER_0_0_29
*48 FILLER_0_0_37
*49 FILLER_0_0_9
*50 FILLER_0_10_14
*51 FILLER_0_10_24
*52 FILLER_0_10_29
*53 FILLER_0_10_33
*54 FILLER_0_10_6
*55 FILLER_0_11_15
*56 FILLER_0_11_27
*57 FILLER_0_11_3
*58 FILLER_0_11_31
*59 FILLER_0_11_37
*60 FILLER_0_11_45
*61 FILLER_0_12_21
*62 FILLER_0_12_27
*63 FILLER_0_12_29
*64 FILLER_0_12_37
*65 FILLER_0_12_9
*66 FILLER_0_1_15
*67 FILLER_0_1_3
*68 FILLER_0_1_30
*69 FILLER_0_1_42
*70 FILLER_0_2_18
*71 FILLER_0_2_26
*72 FILLER_0_2_29
*73 FILLER_0_2_3
*74 FILLER_0_2_42
*75 FILLER_0_3_18
*76 FILLER_0_3_30
*77 FILLER_0_3_42
*78 FILLER_0_3_6
*79 FILLER_0_4_15
*80 FILLER_0_4_24
*81 FILLER_0_4_3
*82 FILLER_0_4_34
*83 FILLER_0_4_46
*84 FILLER_0_5_12
*85 FILLER_0_5_22
*86 FILLER_0_5_28
*87 FILLER_0_5_35
*88 FILLER_0_5_43
*89 FILLER_0_5_6
*90 FILLER_0_6_15
*91 FILLER_0_6_27
*92 FILLER_0_6_29
*93 FILLER_0_6_3
*94 FILLER_0_6_35
*95 FILLER_0_6_39
*96 FILLER_0_6_47
*97 FILLER_0_7_15
*98 FILLER_0_7_27
*99 FILLER_0_7_3
*100 FILLER_0_7_33
*101 FILLER_0_7_37
*102 FILLER_0_7_45
*103 FILLER_0_8_18
*104 FILLER_0_8_26
*105 FILLER_0_8_29
*106 FILLER_0_8_37
*107 FILLER_0_8_42
*108 FILLER_0_8_6
*109 FILLER_0_9_15
*110 FILLER_0_9_19
*111 FILLER_0_9_3
*112 FILLER_0_9_30
*113 FILLER_0_9_42
*114 PHY_EDGE_ROW_0_Left_13
*115 PHY_EDGE_ROW_0_Right_0
*116 PHY_EDGE_ROW_10_Left_23
*117 PHY_EDGE_ROW_10_Right_10
*118 PHY_EDGE_ROW_11_Left_24
*119 PHY_EDGE_ROW_11_Right_11
*120 PHY_EDGE_ROW_12_Left_25
*121 PHY_EDGE_ROW_12_Right_12
*122 PHY_EDGE_ROW_1_Left_14
*123 PHY_EDGE_ROW_1_Right_1
*124 PHY_EDGE_ROW_2_Left_15
*125 PHY_EDGE_ROW_2_Right_2
*126 PHY_EDGE_ROW_3_Left_16
*127 PHY_EDGE_ROW_3_Right_3
*128 PHY_EDGE_ROW_4_Left_17
*129 PHY_EDGE_ROW_4_Right_4
*130 PHY_EDGE_ROW_5_Left_18
*131 PHY_EDGE_ROW_5_Right_5
*132 PHY_EDGE_ROW_6_Left_19
*133 PHY_EDGE_ROW_6_Right_6
*134 PHY_EDGE_ROW_7_Left_20
*135 PHY_EDGE_ROW_7_Right_7
*136 PHY_EDGE_ROW_8_Left_21
*137 PHY_EDGE_ROW_8_Right_8
*138 PHY_EDGE_ROW_9_Left_22
*139 PHY_EDGE_ROW_9_Right_9
*140 TAP_TAPCELL_ROW_0_26
*141 TAP_TAPCELL_ROW_10_31
*142 TAP_TAPCELL_ROW_12_32
*143 TAP_TAPCELL_ROW_2_27
*144 TAP_TAPCELL_ROW_4_28
*145 TAP_TAPCELL_ROW_6_29
*146 TAP_TAPCELL_ROW_8_30
*147 _10_
*148 _11_
*149 _12_
*150 _13_
*151 _14_
*152 _15_
*153 _16_
*154 _17_
*155 _18_
*156 _19_
*157 _20_
*158 _21_
*159 _22_
*160 _23_
*161 _24_
*162 _25_
*163 _26_
*164 _27_
*165 input1
*166 input2
*167 input3
*168 input4
*169 input5
*170 input6
*171 input7
*172 input8
*173 output10
*174 output11
*175 output12
*176 output13
*177 output14
*178 output15
*179 output16
*180 output9

*PORTS
in1[0] I
in1[1] I
in1[2] I
in1[3] I
in1[4] I
in1[5] I
in1[6] I
in1[7] I
out1[0] O
out1[1] O
out1[2] O
out1[3] O
out1[4] O
out1[5] O
out1[6] O
out1[7] O

*D_NET *3 0.00114897
*CONN
*P in1[0] I
*I *165:A I *D sky130_fd_sc_hd__buf_1
*CAP
1 in1[0] 0.000574485
2 *165:A 0
3 *3:11 0.000574485
4 *3:11 *4:19 0
*RES
1 in1[0] *3:11 31.4739 
2 *3:11 *165:A 23 
*END

*D_NET *4 0.000875402
*CONN
*P in1[1] I
*I *166:A I *D sky130_fd_sc_hd__buf_1
*CAP
1 in1[1] 0.000409348
2 *166:A 0
3 *4:19 0.000409348
4 *4:19 *167:A 0
5 *4:19 *29:10 5.67058e-05
6 *3:11 *4:19 0
*RES
1 in1[1] *4:19 28.7327 
2 *4:19 *166:A 23 
*END

*D_NET *5 0.000615123
*CONN
*P in1[2] I
*I *167:A I *D sky130_fd_sc_hd__buf_1
*CAP
1 in1[2] 0.000307562
2 *167:A 0.000307562
3 *167:A *6:17 0
4 *4:19 *167:A 0
*RES
1 in1[2] *167:A 49.8062 
*END

*D_NET *6 0.000742726
*CONN
*P in1[3] I
*I *168:A I *D sky130_fd_sc_hd__clkbuf_1
*CAP
1 in1[3] 0.000371363
2 *168:A 0
3 *6:17 0.000371363
4 *6:17 *7:17 0
5 *6:17 *39:14 0
6 *167:A *6:17 0
*RES
1 in1[3] *6:17 28.2148 
2 *6:17 *168:A 23 
*END

*D_NET *7 0.000650175
*CONN
*P in1[4] I
*I *169:A I *D sky130_fd_sc_hd__buf_1
*CAP
1 in1[4] 0.000325087
2 *169:A 0
3 *7:17 0.000325087
4 *7:17 *8:17 0
5 *7:17 *39:14 0
6 *6:17 *7:17 0
*RES
1 in1[4] *7:17 27.1584 
2 *7:17 *169:A 23 
*END

*D_NET *8 0.000761607
*CONN
*P in1[5] I
*I *170:A I *D sky130_fd_sc_hd__buf_1
*CAP
1 in1[5] 0.000380803
2 *170:A 0
3 *8:17 0.000380803
4 *8:17 *171:A 0
5 *8:17 *39:14 0
6 *7:17 *8:17 0
*RES
1 in1[5] *8:17 28.567 
2 *8:17 *170:A 23 
*END

*D_NET *9 0.000603153
*CONN
*P in1[6] I
*I *171:A I *D sky130_fd_sc_hd__clkbuf_1
*CAP
1 in1[6] 0.000301577
2 *171:A 0.000301577
3 *171:A *10:11 0
4 *8:17 *171:A 0
*RES
1 in1[6] *171:A 49.8062 
*END

*D_NET *10 0.00130197
*CONN
*P in1[7] I
*I *172:A I *D sky130_fd_sc_hd__buf_1
*CAP
1 in1[7] 0.000650983
2 *172:A 0
3 *10:11 0.000650983
4 *171:A *10:11 0
*RES
1 in1[7] *10:11 32.0837 
2 *10:11 *172:A 23 
*END

*D_NET *11 0.00123536
*CONN
*P out1[0] O
*I *180:X O *D sky130_fd_sc_hd__buf_2
*CAP
1 out1[0] 0.00029892
2 *180:X 0.000318757
3 *11:8 0.000617678
4 out1[0] out1[1] 0
*RES
1 *180:X *11:8 44.6596 
2 *11:8 out1[0] 9.10133 
*END

*D_NET *12 0.00046494
*CONN
*P out1[1] O
*I *173:X O *D sky130_fd_sc_hd__buf_2
*CAP
1 out1[1] 0.00023247
2 *173:X 0.00023247
3 out1[1] out1[2] 0
4 out1[0] out1[1] 0
*RES
1 *173:X out1[1] 47.0789 
*END

*D_NET *13 0.000463691
*CONN
*P out1[2] O
*I *174:X O *D sky130_fd_sc_hd__buf_2
*CAP
1 out1[2] 0.000231846
2 *174:X 0.000231846
3 out1[2] out1[3] 0
4 out1[2] *30:14 0
5 out1[1] out1[2] 0
*RES
1 *174:X out1[2] 47.0789 
*END

*D_NET *14 0.000651429
*CONN
*P out1[3] O
*I *175:X O *D sky130_fd_sc_hd__buf_2
*CAP
1 out1[3] 0.000294221
2 *175:X 0.000294221
3 out1[3] out1[4] 0
4 out1[3] *33:10 6.29881e-05
5 out1[2] out1[3] 0
*RES
1 *175:X out1[3] 48.4875 
*END

*D_NET *15 0.000463691
*CONN
*P out1[4] O
*I *176:X O *D sky130_fd_sc_hd__buf_2
*CAP
1 out1[4] 0.000231846
2 *176:X 0.000231846
3 out1[4] out1[5] 0
4 out1[4] *30:14 0
5 out1[3] out1[4] 0
*RES
1 *176:X out1[4] 47.0789 
*END

*D_NET *16 0.000637026
*CONN
*P out1[5] O
*I *177:X O *D sky130_fd_sc_hd__buf_2
*CAP
1 out1[5] 0.000318513
2 *177:X 0.000318513
3 out1[5] out1[6] 0
4 out1[5] *28:12 0
5 out1[5] *30:14 0
6 out1[4] out1[5] 0
*RES
1 *177:X out1[5] 48.4875 
*END

*D_NET *17 0.000826307
*CONN
*P out1[6] O
*I *178:X O *D sky130_fd_sc_hd__buf_2
*CAP
1 out1[6] 0.000400152
2 *178:X 0.000400152
3 out1[6] out1[7] 0
4 out1[6] *36:26 2.60027e-05
5 out1[5] out1[6] 0
*RES
1 *178:X out1[6] 47.5941 
*END

*D_NET *18 0.00110166
*CONN
*P out1[7] O
*I *179:X O *D sky130_fd_sc_hd__clkbuf_4
*CAP
1 out1[7] 0.000175108
2 *179:X 0.000375724
3 *18:8 0.000550832
4 out1[6] out1[7] 0
*RES
1 *179:X *18:8 45.7161 
2 *18:8 out1[7] 8.672 
*END

*D_NET *19 0.0024149
*CONN
*I *163:A I *D sky130_fd_sc_hd__nor2_1
*I *148:B I *D sky130_fd_sc_hd__xnor2_1
*I *147:Y O *D sky130_fd_sc_hd__nor2_1
*CAP
1 *163:A 0.000151258
2 *148:B 0
3 *147:Y 5.45426e-05
4 *19:12 0.000572045
5 *19:8 0.00047533
6 *163:A *148:A 0
7 *163:A *31:8 5.50106e-05
8 *19:12 *23:10 0.000327152
9 *19:12 *27:10 0.000354778
10 *19:12 *40:35 0
11 *19:12 *41:10 0.00011218
12 *19:12 *41:25 0.000134677
13 *19:12 *41:40 0.000177925
*RES
1 *147:Y *19:8 38.6214 
2 *19:8 *19:12 28.1743 
3 *19:12 *148:B 23 
4 *19:12 *163:A 25.5479 
*END

*D_NET *20 0.00192573
*CONN
*I *151:A_N I *D sky130_fd_sc_hd__and2b_1
*I *149:X O *D sky130_fd_sc_hd__o31a_1
*CAP
1 *151:A_N 0
2 *149:X 7.94357e-05
3 *20:14 0.000561992
4 *20:8 0.000641428
5 *20:8 *39:27 9.92544e-05
6 *20:14 *28:6 3.22465e-05
7 *20:14 *38:10 0.000455735
8 *20:14 *40:8 5.56356e-05
9 *20:14 *43:12 0
*RES
1 *149:X *20:8 39.0979 
2 *20:8 *20:14 28.4436 
3 *20:14 *151:A_N 23 
*END

*D_NET *21 0.00686636
*CONN
*I *154:B I *D sky130_fd_sc_hd__and2_1
*I *158:A3 I *D sky130_fd_sc_hd__o31ai_1
*I *151:B I *D sky130_fd_sc_hd__and2b_1
*I *157:D I *D sky130_fd_sc_hd__or4_1
*I *153:B I *D sky130_fd_sc_hd__nor2_1
*I *150:X O *D sky130_fd_sc_hd__or4_2
*CAP
1 *154:B 0
2 *158:A3 0
3 *151:B 0
4 *157:D 0
5 *153:B 0.000424123
6 *150:X 0.000135953
7 *21:64 0.000745812
8 *21:51 0.00106084
9 *21:40 0.000484607
10 *21:27 0.000438019
11 *21:8 0.000828518
12 *153:B *23:8 5.50106e-05
13 *153:B *40:35 5.50049e-05
14 *153:B *42:10 0.000247687
15 *21:8 *148:A 0.000103405
16 *21:27 *158:B1 4.26253e-05
17 *21:27 *42:10 0.000299187
18 *21:40 *158:B1 1.63351e-05
19 *21:40 *28:6 9.77405e-05
20 *21:40 *40:20 6.47558e-05
21 *21:51 *28:6 0.000477628
22 *21:51 *40:35 1.62015e-05
23 *21:51 *41:25 2.96154e-05
24 *21:64 *152:A 0
25 *21:64 *40:35 6.7177e-06
26 *21:64 *40:50 0.00121056
27 *21:64 *41:25 6.07611e-06
28 *21:64 *41:40 1.99391e-05
29 *21:64 *44:10 0
*RES
1 *150:X *21:8 40.0507 
2 *21:8 *153:B 46.2443 
3 *21:8 *21:27 5.96571 
4 *21:27 *157:D 38 
5 *21:27 *21:40 18.7079 
6 *21:40 *151:B 23 
7 *21:40 *21:51 21.235 
8 *21:51 *158:A3 38 
9 *21:51 *21:64 33.6221 
10 *21:64 *154:B 23 
*END

*D_NET *22 0.00184851
*CONN
*I *152:A I *D sky130_fd_sc_hd__clkbuf_1
*I *151:X O *D sky130_fd_sc_hd__and2b_1
*CAP
1 *152:A 0.000558185
2 *151:X 0.000195629
3 *22:8 0.000753814
4 *152:A *25:19 0
5 *152:A *36:12 7.20154e-05
6 *152:A *43:12 0
7 *22:8 *40:27 0.000268868
8 *21:64 *152:A 0
*RES
1 *151:X *22:8 41.0036 
2 *22:8 *152:A 48.7093 
*END

*D_NET *23 0.00495119
*CONN
*I *156:B I *D sky130_fd_sc_hd__xnor2_1
*I *155:A I *D sky130_fd_sc_hd__nor2_1
*I *153:Y O *D sky130_fd_sc_hd__nor2_1
*CAP
1 *156:B 0.000241878
2 *155:A 7.70667e-05
3 *153:Y 0.000330367
4 *23:10 0.000799706
5 *23:8 0.000811127
6 *156:B *147:B 0.00022092
7 *156:B *24:10 0
8 *156:B *29:49 2.71291e-05
9 *156:B *31:16 0.000198835
10 *23:10 *147:B 0.000199701
11 *23:10 *27:10 0.000354778
12 *23:10 *31:16 0.000249127
13 *23:10 *35:10 0.00094419
14 *23:10 *36:26 0.000114206
15 *23:10 *40:35 0
16 *23:10 *41:40 0
17 *153:B *23:8 5.50106e-05
18 *19:12 *23:10 0.000327152
*RES
1 *153:Y *23:8 42.4329 
2 *23:8 *23:10 18.8086 
3 *23:10 *155:A 39.0979 
4 *23:10 *156:B 44.1314 
*END

*D_NET *24 0.00190715
*CONN
*I *155:B I *D sky130_fd_sc_hd__nor2_1
*I *154:X O *D sky130_fd_sc_hd__and2_1
*CAP
1 *155:B 0
2 *154:X 0.000394986
3 *24:10 0.000394986
4 *24:10 *30:14 0.000612594
5 *24:10 *31:16 1.22803e-05
6 *24:10 *34:12 0.000380452
7 *24:10 *40:50 0
8 *24:10 *44:10 0.000111852
9 *156:B *24:10 0
*RES
1 *154:X *24:10 48.7714 
2 *24:10 *155:B 38 
*END

*D_NET *25 0.00255961
*CONN
*I *161:B I *D sky130_fd_sc_hd__xor2_1
*I *159:A I *D sky130_fd_sc_hd__and2_1
*I *157:X O *D sky130_fd_sc_hd__or4_1
*CAP
1 *161:B 0
2 *159:A 0.000150302
3 *157:X 0
4 *25:19 0.000515319
5 *25:4 0.000665622
6 *159:A *157:B 0.000218463
7 *25:19 *36:12 2.2781e-05
8 *25:19 *40:35 0
9 *25:19 *43:12 0.000987127
10 *152:A *25:19 0
*RES
1 *157:X *25:4 23 
2 *25:4 *159:A 26.8529 
3 *25:4 *25:19 43.1743 
4 *25:19 *161:B 23 
*END

*D_NET *26 0.000392548
*CONN
*I *159:B I *D sky130_fd_sc_hd__and2_1
*I *158:Y O *D sky130_fd_sc_hd__o31ai_1
*CAP
1 *159:B 2.37831e-05
2 *158:Y 7.40117e-05
3 *26:8 9.77947e-05
4 *159:B *157:B 5.67058e-05
5 *26:8 *40:35 8.41115e-05
6 *26:8 *41:25 5.61414e-05
*RES
1 *158:Y *26:8 40.2579 
2 *26:8 *159:B 38.6214 
*END

*D_NET *27 0.00120456
*CONN
*I *160:A I *D sky130_fd_sc_hd__clkbuf_1
*I *159:X O *D sky130_fd_sc_hd__and2_1
*CAP
1 *160:A 0
2 *159:X 0.000246275
3 *27:10 0.000246275
4 *27:10 *157:B 2.45549e-06
5 *19:12 *27:10 0.000354778
6 *23:10 *27:10 0.000354778
*RES
1 *159:X *27:10 44.2971 
2 *27:10 *160:A 38 
*END

*D_NET *28 0.00417177
*CONN
*I *163:B I *D sky130_fd_sc_hd__nor2_1
*I *162:X O *D sky130_fd_sc_hd__and2_1
*CAP
1 *163:B 0
2 *162:X 0.00066059
3 *28:12 0.000211327
4 *28:6 0.000871917
5 *28:6 *158:A1 2.80533e-05
6 *28:6 *158:A2 3.32677e-05
7 *28:6 *158:B1 0.000351513
8 *28:6 *40:8 0.000119792
9 *28:6 *40:27 2.02872e-05
10 *28:6 *40:42 6.9805e-05
11 *28:12 *30:14 0.000568598
12 *28:12 *31:16 9.38233e-05
13 *28:12 *34:12 0.000411299
14 *28:12 *35:10 1.59208e-05
15 *28:12 *36:26 0.000107964
16 out1[5] *28:12 0
17 *20:14 *28:6 3.22465e-05
18 *21:40 *28:6 9.77405e-05
19 *21:51 *28:6 0.000477628
*RES
1 *162:X *28:6 37.4379 
2 *28:6 *28:12 38.5964 
3 *28:12 *163:B 23 
*END

*D_NET *29 0.0102235
*CONN
*I *164:A I *D sky130_fd_sc_hd__clkbuf_1
*I *147:B I *D sky130_fd_sc_hd__nor2_1
*I *149:A2 I *D sky130_fd_sc_hd__o31a_1
*I *162:B I *D sky130_fd_sc_hd__and2_1
*I *150:B I *D sky130_fd_sc_hd__or4_2
*I *165:X O *D sky130_fd_sc_hd__buf_1
*CAP
1 *164:A 0.000232257
2 *147:B 0.000258511
3 *149:A2 0
4 *162:B 7.76471e-05
5 *150:B 0.000341625
6 *165:X 0.000271004
7 *29:49 0.000905441
8 *29:38 0.000529089
9 *29:12 0.000715027
10 *29:10 0.000681174
11 *147:B *41:40 0.000257039
12 *150:B *150:A 0.000647323
13 *150:B *37:12 5.15096e-05
14 *150:B *39:14 0.0006457
15 *162:B *162:A 5.3304e-05
16 *162:B *40:8 4.96303e-05
17 *164:A *31:16 0.000180224
18 *164:A *41:40 5.50106e-05
19 *164:A *44:10 1.94693e-05
20 *29:10 *37:8 0.000352538
21 *29:12 *37:8 2.55642e-05
22 *29:12 *37:10 0.000617207
23 *29:12 *37:12 0.000412591
24 *29:12 *39:14 0.000670557
25 *29:12 *39:27 0.000327903
26 *29:38 *149:A1 0.000494485
27 *29:38 *149:A3 0.000307251
28 *29:38 *38:6 0.000271906
29 *29:38 *39:27 4.50194e-05
30 *29:49 *149:A3 5.67058e-05
31 *29:49 *39:27 4.95081e-05
32 *29:49 *40:50 7.75329e-06
33 *29:49 *41:40 0.000109064
34 *156:B *147:B 0.00022092
35 *156:B *29:49 2.71291e-05
36 *4:19 *29:10 5.67058e-05
37 *23:10 *147:B 0.000199701
*RES
1 *165:X *29:10 43.8207 
2 *29:10 *29:12 13.8786 
3 *29:12 *150:B 48.295 
4 *29:12 *162:B 39.595 
5 *29:10 *29:38 21.3386 
6 *29:38 *149:A2 23 
7 *29:38 *29:49 23.1407 
8 *29:49 *147:B 46.6586 
9 *29:49 *164:A 42.5986 
*END

*D_NET *30 0.00423675
*CONN
*I *173:A I *D sky130_fd_sc_hd__buf_2
*I *163:Y O *D sky130_fd_sc_hd__nor2_1
*CAP
1 *173:A 0
2 *163:Y 5.28301e-05
3 *30:14 0.00100366
4 *30:8 0.00105649
5 *30:14 *32:10 7.89964e-05
6 *30:14 *33:10 0.000292457
7 *30:14 *34:12 0.000322531
8 *30:14 *36:26 0.00012381
9 *30:14 *44:10 0.00012478
10 out1[2] *30:14 0
11 out1[4] *30:14 0
12 out1[5] *30:14 0
13 *24:10 *30:14 0.000612594
14 *28:12 *30:14 0.000568598
*RES
1 *163:Y *30:8 38.6214 
2 *30:8 *30:14 43.3579 
3 *30:14 *173:A 23 
*END

*D_NET *31 0.00454822
*CONN
*I *174:A I *D sky130_fd_sc_hd__buf_2
*I *148:Y O *D sky130_fd_sc_hd__xnor2_1
*CAP
1 *174:A 0
2 *148:Y 3.68078e-05
3 *31:16 0.000667758
4 *31:8 0.000704565
5 *31:16 *34:12 0.00142661
6 *31:16 *35:10 0.000759095
7 *31:16 *36:26 0.000164085
8 *156:B *31:16 0.000198835
9 *163:A *31:8 5.50106e-05
10 *164:A *31:16 0.000180224
11 *23:10 *31:16 0.000249127
12 *24:10 *31:16 1.22803e-05
13 *28:12 *31:16 9.38233e-05
*RES
1 *148:Y *31:8 38.6214 
2 *31:8 *31:16 39.65 
3 *31:16 *174:A 23 
*END

*D_NET *32 0.00161934
*CONN
*I *175:A I *D sky130_fd_sc_hd__buf_2
*I *152:X O *D sky130_fd_sc_hd__clkbuf_1
*CAP
1 *175:A 0
2 *152:X 0.00077017
3 *32:10 0.00077017
4 *30:14 *32:10 7.89964e-05
*RES
1 *152:X *32:10 47.5493 
2 *32:10 *175:A 38 
*END

*D_NET *33 0.00127133
*CONN
*I *176:A I *D sky130_fd_sc_hd__buf_2
*I *155:Y O *D sky130_fd_sc_hd__nor2_1
*CAP
1 *176:A 0
2 *155:Y 0.000457943
3 *33:10 0.000457943
4 out1[3] *33:10 6.29881e-05
5 *30:14 *33:10 0.000292457
*RES
1 *155:Y *33:10 47.5907 
2 *33:10 *176:A 38 
*END

*D_NET *34 0.00364222
*CONN
*I *177:A I *D sky130_fd_sc_hd__buf_2
*I *156:Y O *D sky130_fd_sc_hd__xnor2_1
*CAP
1 *177:A 0
2 *156:Y 0
3 *34:12 0.000550665
4 *34:6 0.000550665
5 *24:10 *34:12 0.000380452
6 *28:12 *34:12 0.000411299
7 *30:14 *34:12 0.000322531
8 *31:16 *34:12 0.00142661
*RES
1 *156:Y *34:6 38 
2 *34:6 *34:12 35.8593 
3 *34:12 *177:A 23 
*END

*D_NET *35 0.00272276
*CONN
*I *178:A I *D sky130_fd_sc_hd__buf_2
*I *160:X O *D sky130_fd_sc_hd__clkbuf_1
*CAP
1 *178:A 0
2 *160:X 0
3 *35:10 0.00050178
4 *35:6 0.00050178
5 *35:10 *36:26 0
6 *23:10 *35:10 0.00094419
7 *28:12 *35:10 1.59208e-05
8 *31:16 *35:10 0.000759095
*RES
1 *160:X *35:6 38 
2 *35:6 *35:10 31.3436 
3 *35:10 *178:A 23 
*END

*D_NET *36 0.00484729
*CONN
*I *179:A I *D sky130_fd_sc_hd__clkbuf_4
*I *161:X O *D sky130_fd_sc_hd__xor2_1
*CAP
1 *179:A 0
2 *161:X 0.000674745
3 *36:26 0.00143347
4 *36:12 0.00210821
5 out1[6] *36:26 2.60027e-05
6 *152:A *36:12 7.20154e-05
7 *23:10 *36:26 0.000114206
8 *25:19 *36:12 2.2781e-05
9 *28:12 *36:26 0.000107964
10 *30:14 *36:26 0.00012381
11 *31:16 *36:26 0.000164085
12 *35:10 *36:26 0
*RES
1 *161:X *36:12 48.4982 
2 *36:12 *36:26 44.0169 
3 *36:26 *179:A 23 
*END

*D_NET *37 0.00764554
*CONN
*I *149:A1 I *D sky130_fd_sc_hd__o31a_1
*I *147:A I *D sky130_fd_sc_hd__nor2_1
*I *162:A I *D sky130_fd_sc_hd__and2_1
*I *150:A I *D sky130_fd_sc_hd__or4_2
*I *166:X O *D sky130_fd_sc_hd__buf_1
*CAP
1 *149:A1 8.63436e-05
2 *147:A 0
3 *162:A 3.80122e-05
4 *150:A 0.000436497
5 *166:X 0.000208428
6 *37:40 0.000821904
7 *37:12 0.00071169
8 *37:10 0.00136216
9 *37:8 0.000597844
10 *149:A1 *39:27 0.000494485
11 *150:A *148:A 5.73288e-05
12 *150:A *39:14 0.000176334
13 *150:B *150:A 0.000647323
14 *150:B *37:12 5.15096e-05
15 *162:B *162:A 5.3304e-05
16 *29:10 *37:8 0.000352538
17 *29:12 *37:8 2.55642e-05
18 *29:12 *37:10 0.000617207
19 *29:12 *37:12 0.000412591
20 *29:38 *149:A1 0.000494485
*RES
1 *166:X *37:8 43.075 
2 *37:8 *37:10 8.24429 
3 *37:10 *37:12 6.13143 
4 *37:12 *150:A 49.89 
5 *37:12 *162:A 38.6214 
6 *37:10 *37:40 27.5321 
7 *37:40 *147:A 23 
8 *37:8 *149:A1 43.3857 
*END

*D_NET *38 0.00550473
*CONN
*I *149:A3 I *D sky130_fd_sc_hd__o31a_1
*I *148:A I *D sky130_fd_sc_hd__xnor2_1
*I *150:C I *D sky130_fd_sc_hd__or4_2
*I *167:X O *D sky130_fd_sc_hd__buf_1
*CAP
1 *149:A3 0.000166827
2 *148:A 0.000581915
3 *150:C 0
4 *167:X 0.000214737
5 *38:12 0.000581915
6 *38:10 0.00115662
7 *38:6 0.00153819
8 *38:6 *39:27 1.21972e-05
9 *150:A *148:A 5.73288e-05
10 *163:A *148:A 0
11 *20:14 *38:10 0.000455735
12 *21:8 *148:A 0.000103405
13 *29:38 *149:A3 0.000307251
14 *29:38 *38:6 0.000271906
15 *29:49 *149:A3 5.67058e-05
*RES
1 *167:X *38:6 26.9564 
2 *38:6 *38:10 38.0343 
3 *38:10 *38:12 15 
4 *38:12 *150:C 23 
5 *38:12 *148:A 33.6471 
6 *38:6 *149:A3 26.9564 
*END

*D_NET *39 0.00525412
*CONN
*I *149:B1 I *D sky130_fd_sc_hd__o31a_1
*I *150:D I *D sky130_fd_sc_hd__or4_2
*I *168:X O *D sky130_fd_sc_hd__clkbuf_1
*CAP
1 *149:B1 0
2 *150:D 0
3 *168:X 5.45698e-05
4 *39:27 0.000558669
5 *39:14 0.000753342
6 *39:8 0.00136658
7 *149:A1 *39:27 0.000494485
8 *150:A *39:14 0.000176334
9 *150:B *39:14 0.0006457
10 *6:17 *39:14 0
11 *7:17 *39:14 0
12 *8:17 *39:14 0
13 *20:8 *39:27 9.92544e-05
14 *29:12 *39:14 0.000670557
15 *29:12 *39:27 0.000327903
16 *29:38 *39:27 4.50194e-05
17 *29:49 *39:27 4.95081e-05
18 *38:6 *39:27 1.21972e-05
*RES
1 *168:X *39:8 38.6214 
2 *39:8 *39:14 35.6314 
3 *39:14 *150:D 23 
4 *39:8 *39:27 27.6357 
5 *39:27 *149:B1 23 
*END

*D_NET *40 0.0080567
*CONN
*I *158:A1 I *D sky130_fd_sc_hd__o31ai_1
*I *154:A I *D sky130_fd_sc_hd__and2_1
*I *153:A I *D sky130_fd_sc_hd__nor2_1
*I *157:A I *D sky130_fd_sc_hd__or4_1
*I *169:X O *D sky130_fd_sc_hd__buf_1
*CAP
1 *158:A1 7.74076e-05
2 *154:A 0
3 *153:A 0
4 *157:A 0
5 *169:X 0.000580034
6 *40:50 0.000401935
7 *40:42 0.000584222
8 *40:35 0.000690989
9 *40:27 0.000912065
10 *40:20 0.000185909
11 *40:8 0.00088214
12 *158:A1 *158:A2 3.32677e-05
13 *40:20 *157:B 5.96579e-05
14 *40:20 *157:C 3.70534e-05
15 *40:20 *158:B1 0.000193388
16 *40:20 *43:12 1.22803e-05
17 *40:27 *158:B1 0.00030894
18 *40:35 *41:10 0
19 *40:35 *41:25 0
20 *40:35 *43:12 0
21 *40:42 *158:B1 4.2573e-05
22 *40:50 *41:40 0.000997659
23 *40:50 *44:10 0
24 *153:B *40:35 5.50049e-05
25 *162:B *40:8 4.96303e-05
26 *19:12 *40:35 0
27 *20:14 *40:8 5.56356e-05
28 *21:40 *40:20 6.47558e-05
29 *21:51 *40:35 1.62015e-05
30 *21:64 *40:35 6.7177e-06
31 *21:64 *40:50 0.00121056
32 *22:8 *40:27 0.000268868
33 *23:10 *40:35 0
34 *24:10 *40:50 0
35 *25:19 *40:35 0
36 *26:8 *40:35 8.41115e-05
37 *28:6 *158:A1 2.80533e-05
38 *28:6 *40:8 0.000119792
39 *28:6 *40:27 2.02872e-05
40 *28:6 *40:42 6.9805e-05
41 *29:49 *40:50 7.75329e-06
*RES
1 *169:X *40:8 30.7886 
2 *40:8 *40:20 34.5779 
3 *40:20 *157:A 23 
4 *40:8 *40:27 3.95643 
5 *40:27 *40:35 42.3871 
6 *40:35 *153:A 23 
7 *40:27 *40:42 2.05071 
8 *40:42 *40:50 46.4886 
9 *40:50 *154:A 23 
10 *40:42 *158:A1 24.595 
*END

*D_NET *41 0.0064164
*CONN
*I *156:A I *D sky130_fd_sc_hd__xnor2_1
*I *158:A2 I *D sky130_fd_sc_hd__o31ai_1
*I *157:B I *D sky130_fd_sc_hd__or4_1
*I *170:X O *D sky130_fd_sc_hd__buf_1
*CAP
1 *156:A 0
2 *158:A2 1.24221e-05
3 *157:B 0.000382463
4 *170:X 0.000923322
5 *41:40 0.000446987
6 *41:25 0.000588724
7 *41:10 0.000637139
8 *41:6 0.00104868
9 *157:B *157:C 1.75146e-05
10 *147:B *41:40 0.000257039
11 *158:A1 *158:A2 3.32677e-05
12 *159:A *157:B 0.000218463
13 *159:B *157:B 5.67058e-05
14 *164:A *41:40 5.50106e-05
15 *19:12 *41:10 0.00011218
16 *19:12 *41:25 0.000134677
17 *19:12 *41:40 0.000177925
18 *21:51 *41:25 2.96154e-05
19 *21:64 *41:25 6.07611e-06
20 *21:64 *41:40 1.99391e-05
21 *23:10 *41:40 0
22 *26:8 *41:25 5.61414e-05
23 *27:10 *157:B 2.45549e-06
24 *28:6 *158:A2 3.32677e-05
25 *29:49 *41:40 0.000109064
26 *40:20 *157:B 5.96579e-05
27 *40:35 *41:10 0
28 *40:35 *41:25 0
29 *40:50 *41:40 0.000997659
*RES
1 *170:X *41:6 36.485 
2 *41:6 *41:10 17.9621 
3 *41:10 *157:B 45.5607 
4 *41:10 *41:25 3.66643 
5 *41:25 *158:A2 38.3832 
6 *41:25 *41:40 30.4529 
7 *41:40 *156:A 23 
*END

*D_NET *42 0.00507429
*CONN
*I *158:B1 I *D sky130_fd_sc_hd__o31ai_1
*I *157:C I *D sky130_fd_sc_hd__or4_1
*I *171:X O *D sky130_fd_sc_hd__clkbuf_1
*CAP
1 *158:B1 0.000258373
2 *157:C 8.83453e-05
3 *171:X 0.000314345
4 *42:10 0.000642493
5 *42:8 0.00061012
6 *158:B1 *43:12 0.000292865
7 *42:8 *43:8 0.000585945
8 *42:10 *43:12 0.000724986
9 *153:B *42:10 0.000247687
10 *157:B *157:C 1.75146e-05
11 *21:27 *158:B1 4.26253e-05
12 *21:27 *42:10 0.000299187
13 *21:40 *158:B1 1.63351e-05
14 *28:6 *158:B1 0.000351513
15 *40:20 *157:C 3.70534e-05
16 *40:20 *158:B1 0.000193388
17 *40:27 *158:B1 0.00030894
18 *40:42 *158:B1 4.2573e-05
*RES
1 *171:X *42:8 45.7679 
2 *42:8 *42:10 10.005 
3 *42:10 *157:C 39.6157 
4 *42:10 *158:B1 45.975 
*END

*D_NET *43 0.00546174
*CONN
*I *161:A I *D sky130_fd_sc_hd__xor2_1
*I *172:X O *D sky130_fd_sc_hd__buf_1
*CAP
1 *161:A 0
2 *172:X 0.000420833
3 *43:12 0.00100844
4 *43:8 0.00142927
5 *152:A *43:12 0
6 *158:B1 *43:12 0.000292865
7 *20:14 *43:12 0
8 *25:19 *43:12 0.000987127
9 *40:20 *43:12 1.22803e-05
10 *40:35 *43:12 0
11 *42:8 *43:8 0.000585945
12 *42:10 *43:12 0.000724986
*RES
1 *172:X *43:8 44.815 
2 *43:8 *43:12 39.795 
3 *43:12 *161:A 23 
*END

*D_NET *44 0.000737416
*CONN
*I *180:A I *D sky130_fd_sc_hd__buf_2
*I *164:X O *D sky130_fd_sc_hd__clkbuf_1
*CAP
1 *180:A 0
2 *164:X 0.000240657
3 *44:10 0.000240657
4 *164:A *44:10 1.94693e-05
5 *21:64 *44:10 0
6 *24:10 *44:10 0.000111852
7 *30:14 *44:10 0.00012478
8 *40:50 *44:10 0
*RES
1 *164:X *44:10 43.3443 
2 *44:10 *180:A 38 
*END
